data_Single Layer of MoS2nx 3 ny 1 nz 1
_cell_length_a               9.360000
_cell_length_b               9.360000
_cell_length_c               3.080000
_cell_angle_alpha          90.000000
_cell_angle_beta           90.000000
_cell_angle_gamma          90.000000
_symmetry_cell_setting          Triclinic
_symmetry_space_group_name_H-M 'P 1' 
loop_
_atom_site_label
_atom_site_fract_x
_atom_site_fract_y
_atom_site_fract_z
S1	 0.208840	 0.518608	 1.000000 
S2	 0.208840	 0.518608	 0.000000 
Mo3	 0.208840	 0.326158	 0.500000 
Mo4	 0.375506	 0.614833	 0.500000 
S5	 0.375506	 0.229933	 1.000000 
S6	 0.375506	 0.229933	 0.000000 
S7	 0.542173	 0.518608	 1.000000 
S8	 0.542173	 0.518608	 0.000000 
Mo9	 0.542173	 0.326158	 0.500000 
Mo10	 0.708840	 0.614833	 0.500000 
S11	 0.708840	 0.229933	 1.000000 
S12	 0.708840	 0.229933	 0.000000 
S13	 0.875506	 0.518608	 1.000000 
S14	 0.875506	 0.518608	 0.000000 
Mo15	 0.875506	 0.326158	 0.500000 
Mo16	 0.042173	 0.614833	 0.500000 
S17	 0.042173	 0.229933	 1.000000 
S18	 0.042173	 0.229933	 0.000000 
#                 ---end-of-data-block---
