data_Si [110] nx 2 ny 1 nz 1
_cell_length_a               7.679180
_cell_length_b               7.679180
_cell_length_c               3.839590
_cell_angle_alpha          90.000000
_cell_angle_beta           90.000000
_cell_angle_gamma          90.000000
_symmetry_cell_setting          Triclinic
_symmetry_space_group_name_H-M 'P 1' 
loop_
_atom_site_label
_atom_site_fract_x
_atom_site_fract_y
_atom_site_fract_z
Si1	 0.340294	 0.367671	 0.000000 
Si2	 0.642071	 0.419447	 0.000000 
Si3	 0.215294	 0.492671	 0.500000 
Si4	 0.767071	 0.294447	 0.500000 
Si5	 0.693848	 0.721224	 0.000000 
Si6	 0.288518	 0.065894	 0.000000 
Si7	 0.568848	 0.846224	 0.500000 
#                 ---end-of-data-block---
