data_Pt structure along [001] nx 1 ny 2 nz 1
_cell_length_a               7.810000
_cell_length_b               7.810000
_cell_length_c               5.543717
_cell_angle_alpha          90.000000
_cell_angle_beta           90.000000
_cell_angle_gamma          90.000000
_symmetry_cell_setting          Triclinic
_symmetry_space_group_name_H-M 'P 1' 
loop_
_atom_site_label
_atom_site_fract_x
_atom_site_fract_y
_atom_site_fract_z
Ti1	 0.560510	 0.669074	 0.000000 
Sr2	 0.487287	 0.242298	 0.000000 
Ti3	 0.310510	 0.419074	 0.500000 
Sr4	 0.737287	 0.492298	 0.500000 
Ti5	 0.914063	 0.315521	 0.000000 
Sr6	 0.133733	 0.595851	 0.000000 
Ti7	 0.664063	 0.065521	 0.500000 
Sr8	 0.383733	 0.845851	 0.500000 
#                 ---end-of-data-block---
