data_Amorphous Graphene 800 atoms
_cell_length_a               8.000000
_cell_length_b               8.000000
_cell_length_c               8.000000
_cell_angle_alpha          90.000000
_cell_angle_beta           90.000000
_cell_angle_gamma          90.000000
_symmetry_cell_setting          Triclinic
_symmetry_space_group_name_H-M 'P 1' 
loop_
_atom_site_label
_atom_site_fract_x
_atom_site_fract_y
_atom_site_fract_z
C1	 0.752744	 0.031079	 0.000000 
C2	 0.564676	 0.000000	 0.000000 
C3	 0.188499	 0.041850	 0.000000 
C4	 0.805427	 0.214389	 0.000000 
C5	 0.471919	 0.167745	 0.000000 
C6	 0.977912	 0.268710	 0.000000 
C7	 0.294603	 0.182793	 0.000000 
C8	 0.702469	 0.365804	 0.000000 
C9	 0.529226	 0.343529	 0.000000 
C10	 0.196698	 0.338608	 0.000000 
C11	 0.999202	 0.453564	 0.000000 
C12	 0.728196	 0.551039	 0.000000 
C13	 0.447606	 0.513762	 0.000000 
C14	 0.894955	 0.600886	 0.000000 
C15	 0.266684	 0.509797	 0.000000 
C16	 0.577713	 0.655664	 0.000000 
C17	 0.176304	 0.670662	 0.000000 
C18	 0.599798	 0.853281	 0.000000 
C19	 0.256881	 0.848873	 0.000000 
C20	 0.954042	 0.926989	 0.000000 
C21	 0.106605	 0.950722	 0.000000 
#                 ---end-of-data-block---
