data_Pt structure along [001] nx 2 ny 2 nz 1
_cell_length_a               7.840000
_cell_length_b               7.840000
_cell_length_c               3.920000
_cell_angle_alpha          90.000000
_cell_angle_beta           90.000000
_cell_angle_gamma          90.000000
_symmetry_cell_setting          Triclinic
_symmetry_space_group_name_H-M 'P 1' 
loop_
_atom_site_label
_atom_site_fract_x
_atom_site_fract_y
_atom_site_fract_z
Pt1	 0.540228	 0.298946	 0.000000 
Pt2	 0.781709	 0.234242	 0.500000 
Pt3	 0.475523	 0.057465	 0.500000 
Pt4	 0.234042	 0.122170	 0.000000 
Pt5	 0.057265	 0.428356	 0.000000 
Pt6	 0.298746	 0.363651	 0.500000 
Pt7	 0.846414	 0.475723	 0.000000 
Pt8	 0.669637	 0.781909	 0.000000 
Pt9	 0.911119	 0.717205	 0.500000 
Pt10	 0.604933	 0.540428	 0.500000 
Pt11	 0.363451	 0.605133	 0.000000 
Pt12	 0.186674	 0.911319	 0.000000 
Pt13	 0.428156	 0.846614	 0.500000 
Pt14	 0.121970	 0.669837	 0.500000 
#                 ---end-of-data-block---
