data_TiO2_rutile [110] nx 3 ny 1 nz 1
_cell_length_a               8.877000
_cell_length_b               8.877000
_cell_length_c               6.496897
_cell_angle_alpha          90.000000
_cell_angle_beta           90.000000
_cell_angle_gamma          90.000000
_symmetry_cell_setting          Triclinic
_symmetry_space_group_name_H-M 'P 1' 
loop_
_atom_site_label
_atom_site_fract_x
_atom_site_fract_y
_atom_site_fract_z
Ti1	 0.531041	 0.064847	 0.000000 
Ti2	 0.214127	 0.247817	 0.500000 
Ti3	 0.297461	 0.392154	 0.000000 
Ti4	 0.614374	 0.209184	 0.500000 
Ti5	 0.697707	 0.353522	 0.000000 
Ti6	 0.380794	 0.536492	 0.500000 
Ti7	 0.464127	 0.680829	 0.000000 
Ti8	 0.781041	 0.497859	 0.500000 
Ti9	 0.864374	 0.642197	 0.000000 
Ti10	 0.547461	 0.825167	 0.500000 
Ti11	 0.630794	 0.969505	 0.000000 
Ti12	 0.947707	 0.786535	 0.500000 
#                 ---end-of-data-block---
