data_NiO [110] nx 2 ny 1 nz 1
_cell_length_a               14.064000
_cell_length_b               14.064000
_cell_length_c               2.866200
_cell_angle_alpha          90.000000
_cell_angle_beta           90.000000
_cell_angle_gamma          90.000000
_symmetry_cell_setting          Triclinic
_symmetry_space_group_name_H-M 'P 1' 
loop_
_atom_site_label
_atom_site_fract_x
_atom_site_fract_y
_atom_site_fract_z
Mn1	 0.401777	 0.827659	 0.000000 
Mn2	 0.459820	 0.994329	 0.500000 
Mn3	 0.160125	 0.160999	 0.000000 
Mn4	 0.276219	 0.494349	 0.000000 
Mn5	 0.218172	 0.327679	 0.500000 
Mn6	 0.334267	 0.661019	 0.500000 
Mn7	 0.759520	 0.827659	 0.000000 
Mn8	 0.817564	 0.994329	 0.500000 
Mn9	 0.517868	 0.160999	 0.000000 
Mn10	 0.633963	 0.494349	 0.000000 
Mn11	 0.575915	 0.327679	 0.500000 
Mn12	 0.692010	 0.661019	 0.500000 
#                 ---end-of-data-block---
