data_A fcc partile with size of 8 A with 100/111/110 ratio of 1/0.959111/2
_cell_length_a               11.760000
_cell_length_b               11.760000
_cell_length_c               11.760000
_cell_angle_alpha          90.000000
_cell_angle_beta           90.000000
_cell_angle_gamma          90.000000
_symmetry_cell_setting          Triclinic
_symmetry_space_group_name_H-M 'P 1' 
loop_
_atom_site_label
_atom_site_fract_x
_atom_site_fract_y
_atom_site_fract_z
Pt1	 0.317318	 0.520951	 0.146447 
Pt2	 0.199467	 0.354285	 0.264298 
Pt3	 0.081615	 0.520951	 0.382149 
Pt4	 0.199467	 0.687618	 0.264298 
Pt5	 0.553020	 0.187618	 0.382149 
Pt6	 0.317318	 0.187618	 0.382149 
Pt7	 0.317318	 0.187618	 0.617851 
Pt8	 0.553020	 0.520951	 0.146447 
Pt9	 0.670871	 0.354285	 0.264298 
Pt10	 0.435169	 0.354285	 0.264298 
Pt11	 0.553020	 0.520951	 0.382149 
Pt12	 0.317318	 0.520951	 0.382149 
Pt13	 0.435169	 0.354285	 0.500000 
Pt14	 0.199467	 0.354285	 0.500000 
Pt15	 0.317318	 0.520951	 0.617851 
Pt16	 0.081615	 0.520951	 0.617851 
Pt17	 0.199467	 0.354285	 0.735702 
Pt18	 0.670871	 0.687618	 0.264298 
Pt19	 0.435169	 0.687618	 0.264298 
Pt20	 0.553020	 0.854285	 0.382149 
Pt21	 0.317318	 0.854285	 0.382149 
Pt22	 0.435169	 0.687618	 0.500000 
Pt23	 0.199467	 0.687618	 0.500000 
Pt24	 0.317318	 0.854285	 0.617851 
Pt25	 0.199467	 0.687618	 0.735702 
Pt26	 0.553020	 0.187618	 0.617851 
Pt27	 0.788722	 0.520951	 0.382149 
Pt28	 0.670871	 0.354285	 0.500000 
Pt29	 0.788722	 0.520951	 0.617851 
Pt30	 0.553020	 0.520951	 0.617851 
Pt31	 0.670871	 0.354285	 0.735702 
Pt32	 0.435169	 0.354285	 0.735702 
Pt33	 0.553020	 0.520951	 0.853553 
Pt34	 0.317318	 0.520951	 0.853553 
Pt35	 0.670871	 0.687618	 0.500000 
Pt36	 0.553020	 0.854285	 0.617851 
Pt37	 0.670871	 0.687618	 0.735702 
Pt38	 0.435169	 0.687618	 0.735702 
#                 ---end-of-data-block---
