data_C:\Users\admin\Documents\atomsegmentation_bupt_fullsuite_3\misc\03786.cif
_cell_length_a               11.452600
_cell_length_b               11.452600
_cell_length_c               5.449400
_cell_angle_alpha          90.000000
_cell_angle_beta           90.000000
_cell_angle_gamma          90.000000
_symmetry_cell_setting          Triclinic
_symmetry_space_group_name_H-M 'P 1' 
loop_
_atom_site_label
_atom_site_fract_x
_atom_site_fract_y
_atom_site_fract_z
Sc1	 0.767726	 0.721515	 0.000000 
Sc2	 0.767726	 0.971515	 0.500000 
Sc3	 0.422250	 0.721515	 0.000000 
Sc4	 0.422250	 0.971515	 0.500000 
Dy5	 0.249512	 0.501865	 0.017200 
Dy6	 0.594988	 0.691165	 0.517200 
Dy7	 0.594988	 0.941165	 0.982800 
Dy8	 0.249512	 0.751865	 0.482800 
Sc9	 0.767726	 0.221515	 0.000000 
Sc10	 0.767726	 0.471515	 0.500000 
Sc11	 0.422250	 0.221515	 0.000000 
Sc12	 0.422250	 0.471515	 0.500000 
Dy13	 0.249512	 0.001865	 0.017200 
Dy14	 0.594988	 0.191165	 0.517200 
Dy15	 0.594988	 0.441165	 0.982800 
Dy16	 0.249512	 0.251865	 0.482800 
#                 ---end-of-data-block---
