data_TiO2_rutile [001] nx 2 ny 2 nz 1
_cell_length_a               9.188000
_cell_length_b               9.188000
_cell_length_c               2.959000
_cell_angle_alpha          90.000000
_cell_angle_beta           90.000000
_cell_angle_gamma          90.000000
_symmetry_cell_setting          Triclinic
_symmetry_space_group_name_H-M 'P 1' 
loop_
_atom_site_label
_atom_site_fract_x
_atom_site_fract_y
_atom_site_fract_z
Ti1	 0.648218	 0.310439	 0.000000 
Ti2	 0.556712	 0.651945	 0.500000 
Ti3	 0.215205	 0.560439	 0.000000 
Ti4	 0.989724	 0.401945	 0.500000 
Ti5	 0.898218	 0.743452	 0.000000 
Ti6	 0.306712	 0.218933	 0.500000 
Ti7	 0.465205	 0.993452	 0.000000 
#                 ---end-of-data-block---
