data_TiO2_rutile [110] nx 3 ny 2 nz 1
_cell_length_a               12.993794
_cell_length_b               12.993794
_cell_length_c               6.496897
_cell_angle_alpha          90.000000
_cell_angle_beta           90.000000
_cell_angle_gamma          90.000000
_symmetry_cell_setting          Triclinic
_symmetry_space_group_name_H-M 'P 1' 
loop_
_atom_site_label
_atom_site_fract_x
_atom_site_fract_y
_atom_site_fract_z
Ti1	 0.592038	 0.218387	 0.000000 
Ti2	 0.415261	 0.395164	 0.500000 
Ti3	 0.495773	 0.475676	 0.000000 
Ti4	 0.672550	 0.298899	 0.500000 
Ti5	 0.238484	 0.571940	 0.000000 
Ti6	 0.061707	 0.748717	 0.500000 
Ti7	 0.142220	 0.829230	 0.000000 
Ti8	 0.318997	 0.652453	 0.500000 
Ti9	 0.753063	 0.379412	 0.000000 
Ti10	 0.576286	 0.556189	 0.500000 
Ti11	 0.656799	 0.636701	 0.000000 
Ti12	 0.833575	 0.459925	 0.500000 
Ti13	 0.399509	 0.732965	 0.000000 
Ti14	 0.222733	 0.909742	 0.500000 
Ti15	 0.303245	 0.990255	 0.000000 
Ti16	 0.480022	 0.813478	 0.500000 
Ti17	 0.914088	 0.540437	 0.000000 
Ti18	 0.737311	 0.717214	 0.500000 
Ti19	 0.334748	 0.314651	 0.000000 
Ti20	 0.511525	 0.137874	 0.500000 
Ti21	 0.560535	 0.893991	 0.000000 
Ti22	 0.157971	 0.491428	 0.500000 
#                 ---end-of-data-block---
