data_Pt structure along [001] nx 2 ny 2 nz 1
_cell_length_a               8.360000
_cell_length_b               8.360000
_cell_length_c               4.180000
_cell_angle_alpha          90.000000
_cell_angle_beta           90.000000
_cell_angle_gamma          90.000000
_symmetry_cell_setting          Triclinic
_symmetry_space_group_name_H-M 'P 1' 
loop_
_atom_site_label
_atom_site_fract_x
_atom_site_fract_y
_atom_site_fract_z
Co1	 0.364341	 0.213634	 0.000000 
Co2	 0.489341	 0.430141	 0.500000 
Co3	 0.272835	 0.555141	 0.000000 
Co4	 0.147835	 0.338634	 0.500000 
Co5	 0.056328	 0.680141	 0.500000 
Co6	 0.705848	 0.305141	 0.000000 
Co7	 0.580848	 0.088634	 0.500000 
Co8	 0.614341	 0.646647	 0.000000 
Co9	 0.739341	 0.863153	 0.500000 
Co10	 0.522835	 0.988153	 0.000000 
Co11	 0.397835	 0.771647	 0.500000 
Co12	 0.181328	 0.896647	 0.000000 
Co13	 0.955848	 0.738153	 0.000000 
Co14	 0.830848	 0.521647	 0.500000 
#                 ---end-of-data-block---
