data_Si [110] nx 3 ny 2 nz 1
_cell_length_a               11.518769
_cell_length_b               11.518769
_cell_length_c               3.839590
_cell_angle_alpha          90.000000
_cell_angle_beta           90.000000
_cell_angle_gamma          90.000000
_symmetry_cell_setting          Triclinic
_symmetry_space_group_name_H-M 'P 1' 
loop_
_atom_site_label
_atom_site_fract_x
_atom_site_fract_y
_atom_site_fract_z
Si1	 0.686076	 0.221290	 0.000000 
Si2	 0.387706	 0.473784	 0.000000 
Si3	 0.572241	 0.251792	 0.500000 
Si4	 0.501542	 0.443282	 0.500000 
Si5	 0.230734	 0.343299	 0.000000 
Si6	 0.843048	 0.351776	 0.000000 
Si7	 0.116899	 0.373801	 0.500000 
Si8	 0.046200	 0.565290	 0.500000 
Si9	 0.772349	 0.543265	 0.000000 
Si10	 0.473979	 0.795759	 0.000000 
Si11	 0.658514	 0.573767	 0.500000 
Si12	 0.587815	 0.765257	 0.500000 
Si13	 0.317007	 0.665274	 0.000000 
Si14	 0.929321	 0.673751	 0.000000 
Si15	 0.203172	 0.695776	 0.500000 
Si16	 0.132473	 0.887266	 0.500000 
Si17	 0.858622	 0.865241	 0.000000 
Si18	 0.301433	 0.151809	 0.000000 
Si19	 0.744787	 0.895743	 0.500000 
Si20	 0.415269	 0.121307	 0.500000 
Si21	 0.403280	 0.987249	 0.000000 
Si22	 0.756775	 0.029800	 0.000000 
#                 ---end-of-data-block---
