data_Single Layer of MoS2nx 3 ny 2 nz 1
_cell_length_a               10.807997
_cell_length_b               10.807997
_cell_length_c               3.080000
_cell_angle_alpha          90.000000
_cell_angle_beta           90.000000
_cell_angle_gamma          90.000000
_symmetry_cell_setting          Triclinic
_symmetry_space_group_name_H-M 'P 1' 
loop_
_atom_site_label
_atom_site_fract_x
_atom_site_fract_y
_atom_site_fract_z
S1	 0.223205	 0.220058	 1.000000 
S2	 0.223205	 0.220058	 0.000000 
Mo3	 0.056539	 0.508733	 0.500000 
Mo4	 0.306539	 0.364396	 0.500000 
S5	 0.223205	 0.508733	 1.000000 
S6	 0.223205	 0.508733	 0.000000 
Mo7	 0.306539	 0.075721	 0.500000 
Mo8	 0.056539	 0.797409	 0.500000 
S9	 0.473205	 0.075721	 1.000000 
S10	 0.473205	 0.075721	 0.000000 
S11	 0.473205	 0.364396	 1.000000 
S12	 0.473205	 0.364396	 0.000000 
Mo13	 0.306539	 0.653071	 0.500000 
Mo14	 0.556539	 0.508733	 0.500000 
S15	 0.473205	 0.653071	 1.000000 
S16	 0.473205	 0.653071	 0.000000 
S17	 0.223205	 0.797409	 1.000000 
S18	 0.223205	 0.797409	 0.000000 
Mo19	 0.556539	 0.220058	 0.500000 
Mo20	 0.306539	 0.941746	 0.500000 
S21	 0.723205	 0.220058	 1.000000 
S22	 0.723205	 0.220058	 0.000000 
S23	 0.723205	 0.508733	 1.000000 
S24	 0.723205	 0.508733	 0.000000 
Mo25	 0.556539	 0.797409	 0.500000 
Mo26	 0.806539	 0.653071	 0.500000 
S27	 0.723205	 0.797409	 1.000000 
S28	 0.723205	 0.797409	 0.000000 
S29	 0.473205	 0.941746	 1.000000 
S30	 0.473205	 0.941746	 0.000000 
Mo31	 0.806539	 0.364396	 0.500000 
S32	 0.973205	 0.364396	 1.000000 
S33	 0.973205	 0.364396	 0.000000 
#                 ---end-of-data-block---
