data_Pt structure along [001] nx 3 ny 3 nz 1
_cell_length_a               11.760000
_cell_length_b               11.760000
_cell_length_c               3.920000
_cell_angle_alpha          90.000000
_cell_angle_beta           90.000000
_cell_angle_gamma          90.000000
_symmetry_cell_setting          Triclinic
_symmetry_space_group_name_H-M 'P 1' 
loop_
_atom_site_label
_atom_site_fract_x
_atom_site_fract_y
_atom_site_fract_z
Pt1	 0.486911	 0.033767	 0.000000 
Pt2	 0.425907	 0.261437	 0.000000 
Pt3	 0.570245	 0.178104	 0.500000 
Pt4	 0.342574	 0.117100	 0.500000 
Pt5	 0.198236	 0.200433	 0.000000 
Pt6	 0.137232	 0.428104	 0.000000 
Pt7	 0.281569	 0.344771	 0.500000 
Pt8	 0.053899	 0.283767	 0.500000 
Pt9	 0.714582	 0.094771	 0.000000 
Pt10	 0.653578	 0.322442	 0.000000 
Pt11	 0.592574	 0.550113	 0.000000 
Pt12	 0.736911	 0.466779	 0.500000 
Pt13	 0.509240	 0.405775	 0.500000 
Pt14	 0.364903	 0.489108	 0.000000 
Pt15	 0.303899	 0.716779	 0.000000 
Pt16	 0.448236	 0.633446	 0.500000 
Pt17	 0.220565	 0.572442	 0.500000 
Pt18	 0.076228	 0.655775	 0.000000 
Pt19	 0.881249	 0.383446	 0.000000 
Pt20	 0.159561	 0.800113	 0.500000 
Pt21	 0.797916	 0.239108	 0.500000 
Pt22	 0.820245	 0.611117	 0.000000 
Pt23	 0.759240	 0.838788	 0.000000 
Pt24	 0.903578	 0.755454	 0.500000 
Pt25	 0.675907	 0.694450	 0.500000 
Pt26	 0.531569	 0.777784	 0.000000 
Pt27	 0.614903	 0.922121	 0.500000 
Pt28	 0.387232	 0.861117	 0.500000 
Pt29	 0.242894	 0.944450	 0.000000 
Pt30	 0.964582	 0.527784	 0.500000 
#                 ---end-of-data-block---
