data_Pt structure along [001] nx 4 ny 3 nz 1
_cell_length_a               11.760000
_cell_length_b               11.760000
_cell_length_c               2.771859
_cell_angle_alpha          90.000000
_cell_angle_beta           90.000000
_cell_angle_gamma          90.000000
_symmetry_cell_setting          Triclinic
_symmetry_space_group_name_H-M 'P 1' 
loop_
_atom_site_label
_atom_site_fract_x
_atom_site_fract_y
_atom_site_fract_z
Co1	 0.375268	 0.135173	 0.000000 
Co2	 0.393996	 0.338436	 0.500000 
Co3	 0.208601	 0.423848	 0.000000 
Co4	 0.227330	 0.627111	 0.500000 
Co5	 0.041934	 0.712523	 0.000000 
Co6	 0.560663	 0.049761	 0.500000 
Co7	 0.579392	 0.253024	 0.000000 
Co8	 0.598121	 0.456287	 0.500000 
Co9	 0.412725	 0.541699	 0.000000 
Co10	 0.431454	 0.744962	 0.500000 
Co11	 0.246059	 0.830374	 0.000000 
Co12	 0.764787	 0.167612	 0.500000 
Co13	 0.783516	 0.370875	 0.000000 
Co14	 0.802245	 0.574138	 0.500000 
Co15	 0.616849	 0.659550	 0.000000 
Co16	 0.635578	 0.862813	 0.500000 
Co17	 0.450183	 0.948225	 0.000000 
Co18	 0.968911	 0.285463	 0.500000 
Co19	 0.987640	 0.488726	 0.000000 
Co20	 0.189872	 0.220585	 0.500000 
Co21	 0.820973	 0.777401	 0.000000 
Co22	 0.023206	 0.509260	 0.500000 
#                 ---end-of-data-block---
