data_NiO [110] nx 2 ny 1 nz 1
_cell_length_a               10.245000
_cell_length_b               10.245000
_cell_length_c               2.957500
_cell_angle_alpha          90.000000
_cell_angle_beta           90.000000
_cell_angle_gamma          90.000000
_symmetry_cell_setting          Triclinic
_symmetry_space_group_name_H-M 'P 1' 
loop_
_atom_site_label
_atom_site_fract_x
_atom_site_fract_y
_atom_site_fract_z
Ni1	 0.717651	 0.279873	 1.000000 
Ni2	 0.430190	 0.253385	 0.000000 
Ni3	 0.392732	 0.659913	 0.000000 
Ni4	 0.267732	 0.443407	 0.500000 
Ni5	 0.592651	 0.063367	 0.500000 
Ni6	 0.555190	 0.469891	 0.500000 
Ni7	 0.967651	 0.712886	 1.000000 
Ni8	 0.680190	 0.686398	 0.000000 
Ni9	 0.142732	 0.226901	 0.000000 
Ni10	 0.517732	 0.876420	 0.500000 
Ni11	 0.842651	 0.496380	 0.500000 
Ni12	 0.305190	 0.036878	 0.500000 
#                 ---end-of-data-block---
