data_Pt structure along [001] nx 2 ny 3 nz 1
_cell_length_a               11.715000
_cell_length_b               11.715000
_cell_length_c               5.543717
_cell_angle_alpha          90.000000
_cell_angle_beta           90.000000
_cell_angle_gamma          90.000000
_symmetry_cell_setting          Triclinic
_symmetry_space_group_name_H-M 'P 1' 
loop_
_atom_site_label
_atom_site_fract_x
_atom_site_fract_y
_atom_site_fract_z
Ti1	 0.560097	 0.102403	 0.000000 
Sr2	 0.782089	 0.286937	 0.000000 
Ti3	 0.621101	 0.330074	 0.500000 
Sr4	 0.721085	 0.059266	 0.500000 
Ti5	 0.238122	 0.188676	 0.000000 
Sr6	 0.460114	 0.373210	 0.000000 
Ti7	 0.299126	 0.416347	 0.500000 
Sr8	 0.399109	 0.145539	 0.500000 
Ti9	 0.882072	 0.016130	 0.000000 
Sr10	 0.138138	 0.459483	 0.000000 
Ti11	 0.943077	 0.243801	 0.500000 
Sr12	 0.077134	 0.231812	 0.500000 
Ti13	 0.682105	 0.557745	 0.000000 
Sr14	 0.904097	 0.742279	 0.000000 
Ti15	 0.743110	 0.785415	 0.500000 
Sr16	 0.843093	 0.514608	 0.500000 
Ti17	 0.360130	 0.644018	 0.000000 
Sr18	 0.582122	 0.828552	 0.000000 
Ti19	 0.421134	 0.871688	 0.500000 
Sr20	 0.521118	 0.600881	 0.500000 
Sr21	 0.260147	 0.914825	 0.000000 
Sr22	 0.199143	 0.687154	 0.500000 
#                 ---end-of-data-block---
