data_Amorphous Graphene 800 atoms
_cell_length_a               10.000000
_cell_length_b               10.000000
_cell_length_c               10.000000
_cell_angle_alpha          90.000000
_cell_angle_beta           90.000000
_cell_angle_gamma          90.000000
_symmetry_cell_setting          Triclinic
_symmetry_space_group_name_H-M 'P 1' 
loop_
_atom_site_label
_atom_site_fract_x
_atom_site_fract_y
_atom_site_fract_z
C1	 0.735302	 0.039257	 0.000000 
C2	 0.982072	 0.057697	 0.000000 
C3	 0.487734	 0.013345	 0.000000 
C4	 0.227232	 0.000000	 0.000000 
C5	 0.858652	 0.121685	 0.000000 
C6	 0.355545	 0.068868	 0.000000 
C7	 0.615825	 0.115290	 0.000000 
C8	 0.125362	 0.099957	 0.000000 
C9	 0.844187	 0.259630	 0.000000 
C10	 0.320634	 0.209245	 0.000000 
C11	 0.695080	 0.270331	 0.000000 
C12	 0.169748	 0.232552	 0.000000 
C13	 0.968154	 0.348472	 0.000000 
C14	 0.387609	 0.331878	 0.000000 
C15	 0.658975	 0.409276	 0.000000 
C16	 0.124284	 0.377405	 0.000000 
C17	 0.511211	 0.418561	 0.000000 
C18	 0.921133	 0.486484	 0.000000 
C19	 0.263520	 0.418326	 0.000000 
C20	 0.774482	 0.514401	 0.000000 
C21	 0.455211	 0.546986	 0.000000 
C22	 0.312460	 0.541142	 0.000000 
C23	 0.767875	 0.663718	 0.000000 
C24	 0.496202	 0.681229	 0.000000 
C25	 0.254214	 0.661799	 0.000000 
C26	 0.911239	 0.730132	 0.000000 
C27	 0.635084	 0.723736	 0.000000 
C28	 0.135539	 0.731446	 0.000000 
C29	 0.365605	 0.749266	 0.000000 
C30	 0.984385	 0.867508	 0.000000 
C31	 0.632750	 0.863205	 0.000000 
C32	 0.295716	 0.869798	 0.000000 
C33	 0.156949	 0.871268	 0.000000 
C34	 0.746570	 0.947606	 0.000000 
C35	 0.515506	 0.946219	 0.000000 
C36	 0.888409	 0.971289	 0.000000 
C37	 0.028314	 0.933148	 0.000000 
C38	 0.378398	 0.969255	 0.000000 
#                 ---end-of-data-block---
