data_Single Layer of MoS2nx 6 ny 4 nz 1
_cell_length_a               21.615994
_cell_length_b               21.615994
_cell_length_c               3.080000
_cell_angle_alpha          90.000000
_cell_angle_beta           90.000000
_cell_angle_gamma          90.000000
_symmetry_cell_setting          Triclinic
_symmetry_space_group_name_H-M 'P 1' 
loop_
_atom_site_label
_atom_site_fract_x
_atom_site_fract_y
_atom_site_fract_z
S1	 0.915103	 0.210957	 1.000000 
S2	 0.915103	 0.210957	 0.000000 
Mo3	 0.748437	 0.210957	 0.500000 
Mo4	 0.873437	 0.283125	 0.500000 
S5	 0.790103	 0.283125	 1.000000 
S6	 0.790103	 0.283125	 0.000000 
S7	 0.665103	 0.210957	 1.000000 
S8	 0.665103	 0.210957	 0.000000 
Mo9	 0.498437	 0.210957	 0.500000 
Mo10	 0.623437	 0.283125	 0.500000 
S11	 0.540103	 0.283125	 1.000000 
S12	 0.540103	 0.283125	 0.000000 
S13	 0.415103	 0.210957	 1.000000 
S14	 0.415103	 0.210957	 0.000000 
Mo15	 0.248437	 0.210957	 0.500000 
Mo16	 0.373437	 0.283125	 0.500000 
S17	 0.290103	 0.283125	 1.000000 
S18	 0.290103	 0.283125	 0.000000 
S19	 0.165103	 0.210957	 1.000000 
S20	 0.165103	 0.210957	 0.000000 
Mo21	 0.998437	 0.210957	 0.500000 
Mo22	 0.123437	 0.283125	 0.500000 
S23	 0.040103	 0.283125	 1.000000 
S24	 0.040103	 0.283125	 0.000000 
S25	 0.915103	 0.355294	 1.000000 
S26	 0.915103	 0.355294	 0.000000 
Mo27	 0.748437	 0.355294	 0.500000 
Mo28	 0.873437	 0.427463	 0.500000 
S29	 0.790103	 0.427463	 1.000000 
S30	 0.790103	 0.427463	 0.000000 
S31	 0.665103	 0.355294	 1.000000 
S32	 0.665103	 0.355294	 0.000000 
Mo33	 0.498437	 0.355294	 0.500000 
Mo34	 0.623437	 0.427463	 0.500000 
S35	 0.540103	 0.427463	 1.000000 
S36	 0.540103	 0.427463	 0.000000 
S37	 0.415103	 0.355294	 1.000000 
S38	 0.415103	 0.355294	 0.000000 
Mo39	 0.248437	 0.355294	 0.500000 
Mo40	 0.373437	 0.427463	 0.500000 
S41	 0.290103	 0.427463	 1.000000 
S42	 0.290103	 0.427463	 0.000000 
S43	 0.165103	 0.355294	 1.000000 
S44	 0.165103	 0.355294	 0.000000 
Mo45	 0.998437	 0.355294	 0.500000 
Mo46	 0.123437	 0.427463	 0.500000 
S47	 0.040103	 0.427463	 1.000000 
S48	 0.040103	 0.427463	 0.000000 
S49	 0.915103	 0.499632	 1.000000 
S50	 0.915103	 0.499632	 0.000000 
Mo51	 0.748437	 0.499632	 0.500000 
Mo52	 0.873437	 0.571801	 0.500000 
S53	 0.790103	 0.571801	 1.000000 
S54	 0.790103	 0.571801	 0.000000 
S55	 0.665103	 0.499632	 1.000000 
S56	 0.665103	 0.499632	 0.000000 
Mo57	 0.498437	 0.499632	 0.500000 
Mo58	 0.623437	 0.571801	 0.500000 
S59	 0.540103	 0.571801	 1.000000 
S60	 0.540103	 0.571801	 0.000000 
S61	 0.415103	 0.499632	 1.000000 
S62	 0.415103	 0.499632	 0.000000 
Mo63	 0.248437	 0.499632	 0.500000 
Mo64	 0.373437	 0.571801	 0.500000 
S65	 0.290103	 0.571801	 1.000000 
S66	 0.290103	 0.571801	 0.000000 
S67	 0.165103	 0.499632	 1.000000 
S68	 0.165103	 0.499632	 0.000000 
Mo69	 0.998437	 0.499632	 0.500000 
Mo70	 0.123437	 0.571801	 0.500000 
S71	 0.040103	 0.571801	 1.000000 
S72	 0.040103	 0.571801	 0.000000 
S73	 0.915103	 0.643969	 1.000000 
S74	 0.915103	 0.643969	 0.000000 
Mo75	 0.748437	 0.643969	 0.500000 
Mo76	 0.873437	 0.716138	 0.500000 
S77	 0.790103	 0.716138	 1.000000 
S78	 0.790103	 0.716138	 0.000000 
S79	 0.665103	 0.643969	 1.000000 
S80	 0.665103	 0.643969	 0.000000 
Mo81	 0.498437	 0.643969	 0.500000 
Mo82	 0.623437	 0.716138	 0.500000 
S83	 0.540103	 0.716138	 1.000000 
S84	 0.540103	 0.716138	 0.000000 
S85	 0.415103	 0.643969	 1.000000 
S86	 0.415103	 0.643969	 0.000000 
Mo87	 0.248437	 0.643969	 0.500000 
Mo88	 0.373437	 0.716138	 0.500000 
S89	 0.290103	 0.716138	 1.000000 
S90	 0.290103	 0.716138	 0.000000 
S91	 0.165103	 0.643969	 1.000000 
S92	 0.165103	 0.643969	 0.000000 
Mo93	 0.998437	 0.643969	 0.500000 
Mo94	 0.123437	 0.716138	 0.500000 
S95	 0.040103	 0.716138	 1.000000 
S96	 0.040103	 0.716138	 0.000000 
S97	 0.915103	 0.788307	 1.000000 
S98	 0.915103	 0.788307	 0.000000 
Mo99	 0.748437	 0.788307	 0.500000 
Mo100	 0.873437	 0.860476	 0.500000 
S101	 0.790103	 0.860476	 1.000000 
S102	 0.790103	 0.860476	 0.000000 
S103	 0.665103	 0.788307	 1.000000 
S104	 0.665103	 0.788307	 0.000000 
Mo105	 0.498437	 0.788307	 0.500000 
Mo106	 0.623437	 0.860476	 0.500000 
S107	 0.540103	 0.860476	 1.000000 
S108	 0.540103	 0.860476	 0.000000 
S109	 0.415103	 0.788307	 1.000000 
S110	 0.415103	 0.788307	 0.000000 
Mo111	 0.248437	 0.788307	 0.500000 
Mo112	 0.373437	 0.860476	 0.500000 
S113	 0.290103	 0.860476	 1.000000 
S114	 0.290103	 0.860476	 0.000000 
S115	 0.165103	 0.788307	 1.000000 
S116	 0.165103	 0.788307	 0.000000 
Mo117	 0.998437	 0.788307	 0.500000 
Mo118	 0.123437	 0.860476	 0.500000 
S119	 0.040103	 0.860476	 1.000000 
S120	 0.040103	 0.860476	 0.000000 
S121	 0.915103	 0.932644	 1.000000 
S122	 0.915103	 0.932644	 0.000000 
Mo123	 0.748437	 0.932644	 0.500000 
Mo124	 0.873437	 0.138788	 0.500000 
S125	 0.790103	 0.138788	 1.000000 
S126	 0.790103	 0.138788	 0.000000 
S127	 0.665103	 0.932644	 1.000000 
S128	 0.665103	 0.932644	 0.000000 
Mo129	 0.498437	 0.932644	 0.500000 
Mo130	 0.623437	 0.138788	 0.500000 
S131	 0.540103	 0.138788	 1.000000 
S132	 0.540103	 0.138788	 0.000000 
S133	 0.415103	 0.932644	 1.000000 
S134	 0.415103	 0.932644	 0.000000 
Mo135	 0.248437	 0.932644	 0.500000 
Mo136	 0.373437	 0.138788	 0.500000 
S137	 0.290103	 0.138788	 1.000000 
S138	 0.290103	 0.138788	 0.000000 
S139	 0.165103	 0.932644	 1.000000 
S140	 0.165103	 0.932644	 0.000000 
Mo141	 0.998437	 0.932644	 0.500000 
Mo142	 0.123437	 0.138788	 0.500000 
S143	 0.040103	 0.138788	 1.000000 
S144	 0.040103	 0.138788	 0.000000 
#                 ---end-of-data-block---
