data_NiO [110] nx 4 ny 1 nz 1
_cell_length_a               20.125200
_cell_length_b               20.125200
_cell_length_c               2.866200
_cell_angle_alpha          90.000000
_cell_angle_beta           90.000000
_cell_angle_gamma          90.000000
_symmetry_cell_setting          Triclinic
_symmetry_space_group_name_H-M 'P 1' 
loop_
_atom_site_label
_atom_site_fract_x
_atom_site_fract_y
_atom_site_fract_z
Mn1	 0.358061	 0.316679	 0.000000 
Mn2	 0.256055	 0.386005	 0.500000 
Mn3	 0.089345	 0.213852	 0.000000 
Mn4	 0.560341	 0.171641	 0.000000 
Mn5	 0.662346	 0.102312	 0.500000 
Mn6	 0.458335	 0.240969	 0.500000 
Mn7	 0.422766	 0.558161	 0.000000 
Mn8	 0.320760	 0.627486	 0.500000 
Mn9	 0.154050	 0.455333	 0.000000 
Mn10	 0.625045	 0.413122	 0.000000 
Mn11	 0.727051	 0.343794	 0.500000 
Mn12	 0.523040	 0.482450	 0.500000 
Mn13	 0.487471	 0.799642	 0.000000 
Mn14	 0.385465	 0.868968	 0.500000 
Mn15	 0.218754	 0.696815	 0.000000 
Mn16	 0.689750	 0.654604	 0.000000 
Mn17	 0.791756	 0.585275	 0.500000 
Mn18	 0.587745	 0.723932	 0.500000 
Mn19	 0.293356	 0.075198	 0.000000 
Mn20	 0.191350	 0.144523	 0.500000 
Mn21	 0.283459	 0.938296	 0.000000 
Mn22	 0.754455	 0.896085	 0.000000 
Mn23	 0.856460	 0.826757	 0.500000 
Mn24	 0.652449	 0.965413	 0.500000 
#                 ---end-of-data-block---
