data_Pt structure along [001] nx 5 ny 5 nz 1
_cell_length_a               20.900000
_cell_length_b               20.900000
_cell_length_c               4.180000
_cell_angle_alpha          90.000000
_cell_angle_beta           90.000000
_cell_angle_gamma          90.000000
_symmetry_cell_setting          Triclinic
_symmetry_space_group_name_H-M 'P 1' 
loop_
_atom_site_label
_atom_site_fract_x
_atom_site_fract_y
_atom_site_fract_z
Co1	 0.626857	 0.069408	 0.500000 
Co2	 0.540255	 0.119408	 0.000000 
Co3	 0.490255	 0.032806	 0.500000 
Co4	 0.403652	 0.082806	 0.000000 
Co5	 0.453652	 0.169408	 0.500000 
Co6	 0.367050	 0.219408	 0.000000 
Co7	 0.317050	 0.132806	 0.500000 
Co8	 0.230447	 0.182806	 0.000000 
Co9	 0.280447	 0.269408	 0.500000 
Co10	 0.193845	 0.319408	 0.000000 
Co11	 0.143845	 0.232806	 0.500000 
Co12	 0.057242	 0.282806	 0.000000 
Co13	 0.107242	 0.369408	 0.500000 
Co14	 0.020639	 0.419408	 0.000000 
Co15	 0.713460	 0.019408	 0.000000 
Co16	 0.676857	 0.156011	 0.000000 
Co17	 0.726857	 0.242614	 0.500000 
Co18	 0.640255	 0.292614	 0.000000 
Co19	 0.590255	 0.206011	 0.500000 
Co20	 0.503652	 0.256011	 0.000000 
Co21	 0.553652	 0.342614	 0.500000 
Co22	 0.467050	 0.392614	 0.000000 
Co23	 0.417050	 0.306011	 0.500000 
Co24	 0.330447	 0.356011	 0.000000 
Co25	 0.380447	 0.442614	 0.500000 
Co26	 0.293845	 0.492614	 0.000000 
Co27	 0.243845	 0.406011	 0.500000 
Co28	 0.157242	 0.456011	 0.000000 
Co29	 0.207242	 0.542614	 0.500000 
Co30	 0.120639	 0.592614	 0.000000 
Co31	 0.070639	 0.506011	 0.500000 
Co32	 0.034037	 0.642614	 0.500000 
Co33	 0.813460	 0.192614	 0.000000 
Co34	 0.763460	 0.106011	 0.500000 
Co35	 0.776857	 0.329216	 0.000000 
Co36	 0.826857	 0.415819	 0.500000 
Co37	 0.740255	 0.465819	 0.000000 
Co38	 0.690255	 0.379216	 0.500000 
Co39	 0.603652	 0.429216	 0.000000 
Co40	 0.653652	 0.515819	 0.500000 
Co41	 0.567050	 0.565819	 0.000000 
Co42	 0.517050	 0.479216	 0.500000 
Co43	 0.430447	 0.529216	 0.000000 
Co44	 0.480447	 0.615819	 0.500000 
Co45	 0.393845	 0.665819	 0.000000 
Co46	 0.343845	 0.579216	 0.500000 
Co47	 0.257242	 0.629216	 0.000000 
Co48	 0.307242	 0.715819	 0.500000 
Co49	 0.220639	 0.765819	 0.000000 
Co50	 0.170639	 0.679216	 0.500000 
Co51	 0.084037	 0.729216	 0.000000 
Co52	 0.134037	 0.815819	 0.500000 
Co53	 0.913460	 0.365819	 0.000000 
Co54	 0.863460	 0.279216	 0.500000 
Co55	 0.876857	 0.502421	 0.000000 
Co56	 0.926857	 0.589024	 0.500000 
Co57	 0.840255	 0.639024	 0.000000 
Co58	 0.790255	 0.552421	 0.500000 
Co59	 0.703652	 0.602421	 0.000000 
Co60	 0.753652	 0.689024	 0.500000 
Co61	 0.667050	 0.739024	 0.000000 
Co62	 0.617050	 0.652421	 0.500000 
Co63	 0.530447	 0.702421	 0.000000 
Co64	 0.580447	 0.789024	 0.500000 
Co65	 0.493845	 0.839024	 0.000000 
Co66	 0.443845	 0.752421	 0.500000 
Co67	 0.357242	 0.802421	 0.000000 
Co68	 0.407242	 0.889024	 0.500000 
Co69	 0.320639	 0.939024	 0.000000 
Co70	 0.270639	 0.852421	 0.500000 
Co71	 0.184037	 0.902421	 0.000000 
Co72	 0.234037	 0.989024	 0.500000 
Co73	 0.963460	 0.452421	 0.500000 
Co74	 0.976857	 0.675626	 0.000000 
Co75	 0.940255	 0.812229	 0.000000 
Co76	 0.890255	 0.725626	 0.500000 
Co77	 0.803652	 0.775626	 0.000000 
Co78	 0.853652	 0.862229	 0.500000 
Co79	 0.767050	 0.912229	 0.000000 
Co80	 0.717050	 0.825626	 0.500000 
Co81	 0.630447	 0.875626	 0.000000 
Co82	 0.680447	 0.962229	 0.500000 
Co83	 0.543845	 0.925626	 0.500000 
Co84	 0.457242	 0.975626	 0.000000 
#                 ---end-of-data-block---
