data_TiO2_rutile [100] nx 7 ny 4 nz 1
_cell_length_a               20.713000
_cell_length_b               20.713000
_cell_length_c               4.594000
_cell_angle_alpha          90.000000
_cell_angle_beta           90.000000
_cell_angle_gamma          90.000000
_symmetry_cell_setting          Triclinic
_symmetry_space_group_name_H-M 'P 1' 
loop_
_atom_site_label
_atom_site_fract_x
_atom_site_fract_y
_atom_site_fract_z
Ti1	 0.442434	 0.087660	 0.000000 
Ti2	 0.574187	 0.094071	 0.500000 
Ti3	 0.250355	 0.198557	 0.000000 
Ti4	 0.382109	 0.204967	 0.500000 
Ti5	 0.058277	 0.309453	 0.000000 
Ti6	 0.190030	 0.315864	 0.500000 
Ti7	 0.513862	 0.211378	 0.000000 
Ti8	 0.645616	 0.217789	 0.500000 
Ti9	 0.321784	 0.322275	 0.000000 
Ti10	 0.453537	 0.328685	 0.500000 
Ti11	 0.129705	 0.433171	 0.000000 
Ti12	 0.261459	 0.439582	 0.500000 
Ti13	 0.705941	 0.100482	 0.000000 
Ti14	 0.069380	 0.550478	 0.500000 
Ti15	 0.585291	 0.335096	 0.000000 
Ti16	 0.717044	 0.341507	 0.500000 
Ti17	 0.393212	 0.445993	 0.000000 
Ti18	 0.524966	 0.452403	 0.500000 
Ti19	 0.201134	 0.556889	 0.000000 
Ti20	 0.332887	 0.563300	 0.500000 
Ti21	 0.777369	 0.224199	 0.000000 
Ti22	 0.140809	 0.674196	 0.500000 
Ti23	 0.656719	 0.458814	 0.000000 
Ti24	 0.788473	 0.465225	 0.500000 
Ti25	 0.464641	 0.569710	 0.000000 
Ti26	 0.596394	 0.576121	 0.500000 
Ti27	 0.272562	 0.680607	 0.000000 
Ti28	 0.404316	 0.687018	 0.500000 
Ti29	 0.848798	 0.347917	 0.000000 
Ti30	 0.212237	 0.797914	 0.500000 
Ti31	 0.728148	 0.582532	 0.000000 
Ti32	 0.859901	 0.588943	 0.500000 
Ti33	 0.536069	 0.693428	 0.000000 
Ti34	 0.667823	 0.699839	 0.500000 
Ti35	 0.343991	 0.804325	 0.000000 
Ti36	 0.475744	 0.810736	 0.500000 
Ti37	 0.920226	 0.471635	 0.000000 
Ti38	 0.283666	 0.921632	 0.500000 
Ti39	 0.799576	 0.706250	 0.000000 
Ti40	 0.931330	 0.712660	 0.500000 
Ti41	 0.607498	 0.817146	 0.000000 
Ti42	 0.739251	 0.823557	 0.500000 
Ti43	 0.415419	 0.928043	 0.000000 
Ti44	 0.547173	 0.934454	 0.500000 
Ti45	 0.991655	 0.595353	 0.000000 
Ti46	 0.871005	 0.829968	 0.000000 
Ti47	 0.678926	 0.940864	 0.000000 
Ti48	 0.310680	 0.081250	 0.500000 
Ti49	 0.118602	 0.192146	 0.500000 
#                 ---end-of-data-block---
