data_TiO2_rutile [110] nx 7 ny 3 nz 1
_cell_length_a               20.713000
_cell_length_b               20.713000
_cell_length_c               6.496897
_cell_angle_alpha          90.000000
_cell_angle_beta           90.000000
_cell_angle_gamma          90.000000
_symmetry_cell_setting          Triclinic
_symmetry_space_group_name_H-M 'P 1' 
loop_
_atom_site_label
_atom_site_fract_x
_atom_site_fract_y
_atom_site_fract_z
Ti1	 0.668410	 0.078427	 0.000000 
Ti2	 0.511578	 0.078427	 0.500000 
Ti3	 0.511578	 0.149856	 0.000000 
Ti4	 0.668410	 0.149856	 0.500000 
Ti5	 0.354747	 0.078427	 0.000000 
Ti6	 0.197915	 0.078427	 0.500000 
Ti7	 0.197915	 0.149856	 0.000000 
Ti8	 0.354747	 0.149856	 0.500000 
Ti9	 0.041084	 0.078427	 0.000000 
Ti10	 0.825241	 0.078427	 0.500000 
Ti11	 0.825241	 0.149856	 0.000000 
Ti12	 0.041084	 0.149856	 0.500000 
Ti13	 0.668410	 0.221285	 0.000000 
Ti14	 0.511578	 0.221285	 0.500000 
Ti15	 0.511578	 0.292713	 0.000000 
Ti16	 0.668410	 0.292713	 0.500000 
Ti17	 0.354747	 0.221285	 0.000000 
Ti18	 0.197915	 0.221285	 0.500000 
Ti19	 0.197915	 0.292713	 0.000000 
Ti20	 0.354747	 0.292713	 0.500000 
Ti21	 0.041084	 0.221285	 0.000000 
Ti22	 0.825241	 0.221285	 0.500000 
Ti23	 0.825241	 0.292713	 0.000000 
Ti24	 0.041084	 0.292713	 0.500000 
Ti25	 0.668410	 0.364142	 0.000000 
Ti26	 0.511578	 0.364142	 0.500000 
Ti27	 0.511578	 0.435570	 0.000000 
Ti28	 0.668410	 0.435570	 0.500000 
Ti29	 0.354747	 0.364142	 0.000000 
Ti30	 0.197915	 0.364142	 0.500000 
Ti31	 0.197915	 0.435570	 0.000000 
Ti32	 0.354747	 0.435570	 0.500000 
Ti33	 0.041084	 0.364142	 0.000000 
Ti34	 0.825241	 0.364142	 0.500000 
Ti35	 0.825241	 0.435570	 0.000000 
Ti36	 0.041084	 0.435570	 0.500000 
Ti37	 0.668410	 0.506999	 0.000000 
Ti38	 0.511578	 0.506999	 0.500000 
Ti39	 0.511578	 0.578427	 0.000000 
Ti40	 0.668410	 0.578427	 0.500000 
Ti41	 0.354747	 0.506999	 0.000000 
Ti42	 0.197915	 0.506999	 0.500000 
Ti43	 0.197915	 0.578427	 0.000000 
Ti44	 0.354747	 0.578427	 0.500000 
Ti45	 0.041084	 0.506999	 0.000000 
Ti46	 0.825241	 0.506999	 0.500000 
Ti47	 0.825241	 0.578427	 0.000000 
Ti48	 0.041084	 0.578427	 0.500000 
Ti49	 0.668410	 0.649856	 0.000000 
Ti50	 0.511578	 0.649856	 0.500000 
Ti51	 0.511578	 0.721285	 0.000000 
Ti52	 0.668410	 0.721285	 0.500000 
Ti53	 0.354747	 0.649856	 0.000000 
Ti54	 0.197915	 0.649856	 0.500000 
Ti55	 0.197915	 0.721285	 0.000000 
Ti56	 0.354747	 0.721285	 0.500000 
Ti57	 0.041084	 0.649856	 0.000000 
Ti58	 0.825241	 0.649856	 0.500000 
Ti59	 0.825241	 0.721285	 0.000000 
Ti60	 0.041084	 0.721285	 0.500000 
Ti61	 0.668410	 0.792713	 0.000000 
Ti62	 0.511578	 0.792713	 0.500000 
Ti63	 0.511578	 0.864142	 0.000000 
Ti64	 0.668410	 0.864142	 0.500000 
Ti65	 0.354747	 0.792713	 0.000000 
Ti66	 0.197915	 0.792713	 0.500000 
Ti67	 0.197915	 0.864142	 0.000000 
Ti68	 0.354747	 0.864142	 0.500000 
Ti69	 0.041084	 0.792713	 0.000000 
Ti70	 0.825241	 0.792713	 0.500000 
Ti71	 0.825241	 0.864142	 0.000000 
Ti72	 0.041084	 0.864142	 0.500000 
Ti73	 0.668410	 0.935570	 0.000000 
Ti74	 0.511578	 0.935570	 0.500000 
Ti75	 0.511578	 0.006999	 0.000000 
Ti76	 0.668410	 0.006999	 0.500000 
Ti77	 0.354747	 0.935570	 0.000000 
Ti78	 0.197915	 0.935570	 0.500000 
Ti79	 0.197915	 0.006999	 0.000000 
Ti80	 0.354747	 0.006999	 0.500000 
Ti81	 0.041084	 0.935570	 0.000000 
Ti82	 0.825241	 0.935570	 0.500000 
Ti83	 0.825241	 0.006999	 0.000000 
Ti84	 0.041084	 0.006999	 0.500000 
#                 ---end-of-data-block---
