data_Si [110] nx 5 ny 4 nz 1
_cell_length_a               21.720000
_cell_length_b               21.720000
_cell_length_c               3.839590
_cell_angle_alpha          90.000000
_cell_angle_beta           90.000000
_cell_angle_gamma          90.000000
_symmetry_cell_setting          Triclinic
_symmetry_space_group_name_H-M 'P 1' 
loop_
_atom_site_label
_atom_site_fract_x
_atom_site_fract_y
_atom_site_fract_z
Si1	 0.347272	 0.188645	 0.000000 
Si2	 0.333226	 0.036198	 0.500000 
Si3	 0.378522	 0.134518	 0.500000 
Si4	 0.239476	 0.198577	 0.000000 
Si5	 0.222272	 0.405151	 0.000000 
Si6	 0.208226	 0.252704	 0.500000 
Si7	 0.253522	 0.351025	 0.500000 
Si8	 0.114476	 0.415084	 0.000000 
Si9	 0.097272	 0.621658	 0.000000 
Si10	 0.083226	 0.469210	 0.500000 
Si11	 0.128522	 0.567531	 0.500000 
Si12	 0.003522	 0.784037	 0.500000 
Si13	 0.517569	 0.070459	 0.000000 
Si14	 0.500365	 0.277033	 0.000000 
Si15	 0.486319	 0.124586	 0.500000 
Si16	 0.531615	 0.222907	 0.500000 
Si17	 0.392569	 0.286966	 0.000000 
Si18	 0.375365	 0.493540	 0.000000 
Si19	 0.361319	 0.341092	 0.500000 
Si20	 0.406615	 0.439413	 0.500000 
Si21	 0.267569	 0.503472	 0.000000 
Si22	 0.250365	 0.710046	 0.000000 
Si23	 0.236319	 0.557599	 0.500000 
Si24	 0.281615	 0.655919	 0.500000 
Si25	 0.142569	 0.719978	 0.000000 
Si26	 0.625365	 0.060527	 0.000000 
Si27	 0.111319	 0.774105	 0.500000 
Si28	 0.156615	 0.872426	 0.500000 
Si29	 0.670662	 0.158848	 0.000000 
Si30	 0.653459	 0.365422	 0.000000 
Si31	 0.639412	 0.212974	 0.500000 
Si32	 0.684709	 0.311295	 0.500000 
Si33	 0.545662	 0.375354	 0.000000 
Si34	 0.528459	 0.581928	 0.000000 
Si35	 0.514412	 0.429481	 0.500000 
Si36	 0.559709	 0.527801	 0.500000 
Si37	 0.420662	 0.591860	 0.000000 
Si38	 0.403459	 0.798434	 0.000000 
Si39	 0.389412	 0.645987	 0.500000 
Si40	 0.434709	 0.744308	 0.500000 
Si41	 0.295662	 0.808367	 0.000000 
Si42	 0.778459	 0.148915	 0.000000 
Si43	 0.264412	 0.862493	 0.500000 
Si44	 0.309709	 0.960814	 0.500000 
Si45	 0.823755	 0.247236	 0.000000 
Si46	 0.806552	 0.453810	 0.000000 
Si47	 0.792505	 0.301363	 0.500000 
Si48	 0.837802	 0.399683	 0.500000 
Si49	 0.698755	 0.463742	 0.000000 
Si50	 0.681552	 0.670316	 0.000000 
Si51	 0.667505	 0.517869	 0.500000 
Si52	 0.712802	 0.616190	 0.500000 
Si53	 0.573755	 0.680249	 0.000000 
Si54	 0.556552	 0.886823	 0.000000 
Si55	 0.542505	 0.734375	 0.500000 
Si56	 0.587802	 0.832696	 0.500000 
Si57	 0.448755	 0.896755	 0.000000 
Si58	 0.931552	 0.237304	 0.000000 
Si59	 0.417505	 0.950882	 0.500000 
Si60	 0.976848	 0.335624	 0.000000 
Si61	 0.959645	 0.542198	 0.000000 
Si62	 0.945598	 0.389751	 0.500000 
Si63	 0.990895	 0.488072	 0.500000 
Si64	 0.851848	 0.552131	 0.000000 
Si65	 0.834645	 0.758705	 0.000000 
Si66	 0.820598	 0.606257	 0.500000 
Si67	 0.865895	 0.704578	 0.500000 
Si68	 0.726848	 0.768637	 0.000000 
Si69	 0.709645	 0.975211	 0.000000 
Si70	 0.695598	 0.822764	 0.500000 
Si71	 0.740895	 0.921084	 0.500000 
Si72	 0.601848	 0.985143	 0.000000 
#                 ---end-of-data-block---
