data_STO [001]5x5x1
_cell_length_a               19.525000
_cell_length_b               19.525000
_cell_length_c               3.905000
_cell_angle_alpha          90.000000
_cell_angle_beta           90.000000
_cell_angle_gamma          90.000000
_symmetry_cell_setting          Triclinic
_symmetry_space_group_name_H-M 'P 1' 
loop_
_atom_site_label
_atom_site_fract_x
_atom_site_fract_y
_atom_site_fract_z
Sr1	 0.031827	 0.169416	 0.000000 
Ti2	 0.131827	 0.269416	 0.500000 
Sr3	 0.031827	 0.369416	 0.000000 
Ti4	 0.131827	 0.469416	 0.500000 
Sr5	 0.031827	 0.569416	 0.000000 
Ti6	 0.131827	 0.669416	 0.500000 
Sr7	 0.031827	 0.769416	 0.000000 
Ti8	 0.131827	 0.869416	 0.500000 
Sr9	 0.031827	 0.969416	 0.000000 
Ti10	 0.131827	 0.069416	 0.500000 
Sr11	 0.231827	 0.169416	 0.000000 
Ti12	 0.331827	 0.269416	 0.500000 
Sr13	 0.231827	 0.369416	 0.000000 
Ti14	 0.331827	 0.469416	 0.500000 
Sr15	 0.231827	 0.569416	 0.000000 
Ti16	 0.331827	 0.669416	 0.500000 
Sr17	 0.231827	 0.769416	 0.000000 
Ti18	 0.331827	 0.869416	 0.500000 
Sr19	 0.231827	 0.969416	 0.000000 
Ti20	 0.331827	 0.069416	 0.500000 
Sr21	 0.431827	 0.169416	 0.000000 
Ti22	 0.531827	 0.269416	 0.500000 
Sr23	 0.431827	 0.369416	 0.000000 
Ti24	 0.531827	 0.469416	 0.500000 
Sr25	 0.431827	 0.569416	 0.000000 
Ti26	 0.531827	 0.669416	 0.500000 
Sr27	 0.431827	 0.769416	 0.000000 
Ti28	 0.531827	 0.869416	 0.500000 
Sr29	 0.431827	 0.969416	 0.000000 
Ti30	 0.531827	 0.069416	 0.500000 
Sr31	 0.631827	 0.169416	 0.000000 
Ti32	 0.731827	 0.269416	 0.500000 
Sr33	 0.631827	 0.369416	 0.000000 
Ti34	 0.731827	 0.469416	 0.500000 
Sr35	 0.631827	 0.569416	 0.000000 
Ti36	 0.731827	 0.669416	 0.500000 
Sr37	 0.631827	 0.769416	 0.000000 
Ti38	 0.731827	 0.869416	 0.500000 
Sr39	 0.631827	 0.969416	 0.000000 
Ti40	 0.731827	 0.069416	 0.500000 
Sr41	 0.831827	 0.169416	 0.000000 
Ti42	 0.931827	 0.269416	 0.500000 
Sr43	 0.831827	 0.369416	 0.000000 
Ti44	 0.931827	 0.469416	 0.500000 
Sr45	 0.831827	 0.569416	 0.000000 
Ti46	 0.931827	 0.669416	 0.500000 
Sr47	 0.831827	 0.769416	 0.000000 
Ti48	 0.931827	 0.869416	 0.500000 
Sr49	 0.831827	 0.969416	 0.000000 
Ti50	 0.931827	 0.069416	 0.500000 
#                 ---end-of-data-block---
