data_C:\Users\admin\Documents\atomsegmentation_bupt_fullsuite_3\misc\08492.cif
_cell_length_a               23.739600
_cell_length_b               23.739600
_cell_length_c               5.449400
_cell_angle_alpha          90.000000
_cell_angle_beta           90.000000
_cell_angle_gamma          90.000000
_symmetry_cell_setting          Triclinic
_symmetry_space_group_name_H-M 'P 1' 
loop_
_atom_site_label
_atom_site_fract_x
_atom_site_fract_y
_atom_site_fract_z
Sc1	 0.514577	 0.313656	 0.000000 
Sc2	 0.398080	 0.344871	 0.500000 
Sc3	 0.557713	 0.474643	 0.000000 
Sc4	 0.441216	 0.505859	 0.500000 
Dy5	 0.638499	 0.366724	 0.017200 
Dy6	 0.593424	 0.551348	 0.517200 
Dy7	 0.476927	 0.582563	 0.982800 
Dy8	 0.522002	 0.397939	 0.482800 
Sc9	 0.281583	 0.376086	 0.000000 
Sc10	 0.165086	 0.407302	 0.500000 
Sc11	 0.324719	 0.537074	 0.000000 
Sc12	 0.208223	 0.568289	 0.500000 
Dy13	 0.405505	 0.429154	 0.017200 
Dy14	 0.360430	 0.613778	 0.517200 
Dy15	 0.243934	 0.644994	 0.982800 
Dy16	 0.289008	 0.460370	 0.482800 
Sc17	 0.747571	 0.251225	 0.000000 
Sc18	 0.631074	 0.282441	 0.500000 
Sc19	 0.790707	 0.412213	 0.000000 
Sc20	 0.674210	 0.443428	 0.500000 
Dy21	 0.172512	 0.491585	 0.017200 
Dy22	 0.826418	 0.488917	 0.517200 
Dy23	 0.709921	 0.520132	 0.982800 
Dy24	 0.754996	 0.335509	 0.482800 
Sc25	 0.600850	 0.635631	 0.000000 
Sc26	 0.484353	 0.666846	 0.500000 
Sc27	 0.643986	 0.796619	 0.000000 
Sc28	 0.527489	 0.827834	 0.500000 
Dy29	 0.724772	 0.688699	 0.017200 
Dy30	 0.679697	 0.873323	 0.517200 
Dy31	 0.563200	 0.904538	 0.982800 
Dy32	 0.608275	 0.719914	 0.482800 
Sc33	 0.367856	 0.698062	 0.000000 
Sc34	 0.251359	 0.729277	 0.500000 
Sc35	 0.410992	 0.859049	 0.000000 
Sc36	 0.294496	 0.890265	 0.500000 
Dy37	 0.491778	 0.751130	 0.017200 
Dy38	 0.446703	 0.935754	 0.517200 
Dy39	 0.330207	 0.966969	 0.982800 
Dy40	 0.375281	 0.782345	 0.482800 
Sc41	 0.833844	 0.573201	 0.000000 
Sc42	 0.717347	 0.604416	 0.500000 
Sc43	 0.876980	 0.734188	 0.000000 
Sc44	 0.760483	 0.765403	 0.500000 
Dy45	 0.258785	 0.813560	 0.017200 
Dy46	 0.912691	 0.810893	 0.517200 
Dy47	 0.796194	 0.842108	 0.982800 
Dy48	 0.841269	 0.657484	 0.482800 
Sc49	 0.687123	 0.957606	 0.000000 
Sc50	 0.570626	 0.988822	 0.500000 
Sc51	 0.471440	 0.152668	 0.000000 
Sc52	 0.354943	 0.183883	 0.500000 
Dy53	 0.552226	 0.044749	 0.017200 
Dy54	 0.507151	 0.229372	 0.517200 
Dy55	 0.390654	 0.260588	 0.982800 
Dy56	 0.435729	 0.075964	 0.482800 
Sc57	 0.238446	 0.215099	 0.000000 
Sc58	 0.121950	 0.246314	 0.500000 
Dy59	 0.319232	 0.107179	 0.017200 
Dy60	 0.274157	 0.291803	 0.517200 
Dy61	 0.157660	 0.323018	 0.982800 
Dy62	 0.202735	 0.138394	 0.482800 
Sc63	 0.920117	 0.895176	 0.000000 
Sc64	 0.803620	 0.926391	 0.500000 
Sc65	 0.704434	 0.090238	 0.000000 
Sc66	 0.587937	 0.121453	 0.500000 
Dy67	 0.086239	 0.169610	 0.017200 
Dy68	 0.740145	 0.166942	 0.517200 
Dy69	 0.623648	 0.198157	 0.982800 
Dy70	 0.668723	 0.013533	 0.482800 
#                 ---end-of-data-block---
