data_TiO2_rutile [001] nx 4 ny 4 nz 1
_cell_length_a               18.376000
_cell_length_b               18.376000
_cell_length_c               2.959000
_cell_angle_alpha          90.000000
_cell_angle_beta           90.000000
_cell_angle_gamma          90.000000
_symmetry_cell_setting          Triclinic
_symmetry_space_group_name_H-M 'P 1' 
loop_
_atom_site_label
_atom_site_fract_x
_atom_site_fract_y
_atom_site_fract_z
Ti1	 0.543149	 0.159515	 0.500000 
Ti2	 0.366372	 0.159515	 0.000000 
Ti3	 0.366372	 0.336292	 0.500000 
Ti4	 0.189595	 0.336292	 0.000000 
Ti5	 0.189595	 0.513069	 0.500000 
Ti6	 0.012819	 0.513069	 0.000000 
Ti7	 0.012819	 0.689845	 0.500000 
Ti8	 0.719925	 0.159515	 0.000000 
Ti9	 0.719925	 0.336292	 0.500000 
Ti10	 0.543149	 0.336292	 0.000000 
Ti11	 0.543149	 0.513069	 0.500000 
Ti12	 0.366372	 0.513069	 0.000000 
Ti13	 0.366372	 0.689845	 0.500000 
Ti14	 0.189595	 0.689845	 0.000000 
Ti15	 0.189595	 0.866622	 0.500000 
Ti16	 0.896702	 0.336292	 0.000000 
Ti17	 0.896702	 0.513069	 0.500000 
Ti18	 0.719925	 0.513069	 0.000000 
Ti19	 0.719925	 0.689845	 0.500000 
Ti20	 0.543149	 0.689845	 0.000000 
Ti21	 0.543149	 0.866622	 0.500000 
Ti22	 0.366372	 0.866622	 0.000000 
Ti23	 0.896702	 0.689845	 0.000000 
Ti24	 0.189595	 0.159515	 0.500000 
Ti25	 0.719925	 0.866622	 0.000000 
Ti26	 0.012819	 0.336292	 0.500000 
#                 ---end-of-data-block---
