data_A fcc partile with size of 16 A with 100/111/110 ratio of 1/0.94165/2
_cell_length_a               23.520000
_cell_length_b               23.520000
_cell_length_c               23.520000
_cell_angle_alpha          90.000000
_cell_angle_beta           90.000000
_cell_angle_gamma          90.000000
_symmetry_cell_setting          Triclinic
_symmetry_space_group_name_H-M 'P 1' 
loop_
_atom_site_label
_atom_site_fract_x
_atom_site_fract_y
_atom_site_fract_z
Pt1	 0.234675	 0.680360	 0.323223 
Pt2	 0.426165	 0.609661	 0.205372 
Pt3	 0.395663	 0.723497	 0.205372 
Pt4	 0.330420	 0.645011	 0.264298 
Pt5	 0.299918	 0.758846	 0.264298 
Pt6	 0.395663	 0.723497	 0.323223 
Pt7	 0.365161	 0.837332	 0.323223 
Pt8	 0.299918	 0.758846	 0.382149 
Pt9	 0.365161	 0.837332	 0.441074 
Pt10	 0.521910	 0.574312	 0.146447 
Pt11	 0.491408	 0.688147	 0.146447 
Pt12	 0.587153	 0.652798	 0.205372 
Pt13	 0.556650	 0.766633	 0.205372 
Pt14	 0.491408	 0.688147	 0.264298 
Pt15	 0.460906	 0.801983	 0.264298 
Pt16	 0.556650	 0.766633	 0.323223 
Pt17	 0.526148	 0.880469	 0.323223 
Pt18	 0.460906	 0.801983	 0.382149 
Pt19	 0.430403	 0.915818	 0.382149 
Pt20	 0.526148	 0.880469	 0.441074 
Pt21	 0.430403	 0.915818	 0.500000 
Pt22	 0.652395	 0.731284	 0.264298 
Pt23	 0.621893	 0.845119	 0.264298 
Pt24	 0.717638	 0.809770	 0.323223 
Pt25	 0.621893	 0.845119	 0.382149 
Pt26	 0.295679	 0.452689	 0.323223 
Pt27	 0.265177	 0.566525	 0.323223 
Pt28	 0.199935	 0.488039	 0.382149 
Pt29	 0.169432	 0.601874	 0.382149 
Pt30	 0.265177	 0.566525	 0.441074 
Pt31	 0.234675	 0.680360	 0.441074 
Pt32	 0.169432	 0.601874	 0.500000 
Pt33	 0.234675	 0.680360	 0.558926 
Pt34	 0.487169	 0.381990	 0.205372 
Pt35	 0.456667	 0.495826	 0.205372 
Pt36	 0.391424	 0.417340	 0.264298 
Pt37	 0.360922	 0.531175	 0.264298 
Pt38	 0.456667	 0.495826	 0.323223 
Pt39	 0.426165	 0.609661	 0.323223 
Pt40	 0.360922	 0.531175	 0.382149 
Pt41	 0.330420	 0.645011	 0.382149 
Pt42	 0.426165	 0.609661	 0.441074 
Pt43	 0.395663	 0.723497	 0.441074 
Pt44	 0.330420	 0.645011	 0.500000 
Pt45	 0.299918	 0.758846	 0.500000 
Pt46	 0.395663	 0.723497	 0.558926 
Pt47	 0.365161	 0.837332	 0.558926 
Pt48	 0.299918	 0.758846	 0.617851 
Pt49	 0.365161	 0.837332	 0.676777 
Pt50	 0.552412	 0.460476	 0.146447 
Pt51	 0.648157	 0.425127	 0.205372 
Pt52	 0.617655	 0.538962	 0.205372 
Pt53	 0.552412	 0.460476	 0.264298 
Pt54	 0.521910	 0.574312	 0.264298 
Pt55	 0.617655	 0.538962	 0.323223 
Pt56	 0.587153	 0.652798	 0.323223 
Pt57	 0.521910	 0.574312	 0.382149 
Pt58	 0.491408	 0.688147	 0.382149 
Pt59	 0.587153	 0.652798	 0.441074 
Pt60	 0.556650	 0.766633	 0.441074 
Pt61	 0.491408	 0.688147	 0.500000 
Pt62	 0.460906	 0.801983	 0.500000 
Pt63	 0.556650	 0.766633	 0.558926 
Pt64	 0.526148	 0.880469	 0.558926 
Pt65	 0.460906	 0.801983	 0.617851 
Pt66	 0.430403	 0.915818	 0.617851 
Pt67	 0.526148	 0.880469	 0.676777 
Pt68	 0.713400	 0.503613	 0.264298 
Pt69	 0.682897	 0.617448	 0.264298 
Pt70	 0.778642	 0.582099	 0.323223 
Pt71	 0.748140	 0.695934	 0.323223 
Pt72	 0.682897	 0.617448	 0.382149 
Pt73	 0.652395	 0.731284	 0.382149 
Pt74	 0.748140	 0.695934	 0.441074 
Pt75	 0.717638	 0.809770	 0.441074 
Pt76	 0.652395	 0.731284	 0.500000 
Pt77	 0.621893	 0.845119	 0.500000 
Pt78	 0.717638	 0.809770	 0.558926 
Pt79	 0.621893	 0.845119	 0.617851 
Pt80	 0.843885	 0.660585	 0.382149 
Pt81	 0.813383	 0.774420	 0.382149 
Pt82	 0.813383	 0.774420	 0.500000 
Pt83	 0.326182	 0.338854	 0.323223 
Pt84	 0.230437	 0.374203	 0.382149 
Pt85	 0.326182	 0.338854	 0.441074 
Pt86	 0.295679	 0.452689	 0.441074 
Pt87	 0.230437	 0.374203	 0.500000 
Pt88	 0.199935	 0.488039	 0.500000 
Pt89	 0.295679	 0.452689	 0.558926 
Pt90	 0.265177	 0.566525	 0.558926 
Pt91	 0.199935	 0.488039	 0.617851 
Pt92	 0.169432	 0.601874	 0.617851 
Pt93	 0.265177	 0.566525	 0.676777 
Pt94	 0.234675	 0.680360	 0.676777 
Pt95	 0.421926	 0.303504	 0.264298 
Pt96	 0.517671	 0.268155	 0.323223 
Pt97	 0.487169	 0.381990	 0.323223 
Pt98	 0.421926	 0.303504	 0.382149 
Pt99	 0.391424	 0.417340	 0.382149 
Pt100	 0.487169	 0.381990	 0.441074 
Pt101	 0.456667	 0.495826	 0.441074 
Pt102	 0.391424	 0.417340	 0.500000 
Pt103	 0.360922	 0.531175	 0.500000 
Pt104	 0.456667	 0.495826	 0.558926 
Pt105	 0.426165	 0.609661	 0.558926 
Pt106	 0.360922	 0.531175	 0.617851 
Pt107	 0.330420	 0.645011	 0.617851 
Pt108	 0.426165	 0.609661	 0.676777 
Pt109	 0.395663	 0.723497	 0.676777 
Pt110	 0.330420	 0.645011	 0.735702 
Pt111	 0.299918	 0.758846	 0.735702 
Pt112	 0.395663	 0.723497	 0.794628 
Pt113	 0.582914	 0.346641	 0.264298 
Pt114	 0.678659	 0.311291	 0.323223 
Pt115	 0.648157	 0.425127	 0.323223 
Pt116	 0.582914	 0.346641	 0.382149 
Pt117	 0.552412	 0.460476	 0.382149 
Pt118	 0.648157	 0.425127	 0.441074 
Pt119	 0.617655	 0.538962	 0.441074 
Pt120	 0.552412	 0.460476	 0.500000 
Pt121	 0.521910	 0.574312	 0.500000 
Pt122	 0.617655	 0.538962	 0.558926 
Pt123	 0.587153	 0.652798	 0.558926 
Pt124	 0.521910	 0.574312	 0.617851 
Pt125	 0.491408	 0.688147	 0.617851 
Pt126	 0.587153	 0.652798	 0.676777 
Pt127	 0.556650	 0.766633	 0.676777 
Pt128	 0.491408	 0.688147	 0.735702 
Pt129	 0.460906	 0.801983	 0.735702 
Pt130	 0.556650	 0.766633	 0.794628 
Pt131	 0.743902	 0.389777	 0.264298 
Pt132	 0.809144	 0.468263	 0.323223 
Pt133	 0.743902	 0.389777	 0.382149 
Pt134	 0.713400	 0.503613	 0.382149 
Pt135	 0.809144	 0.468263	 0.441074 
Pt136	 0.778642	 0.582099	 0.441074 
Pt137	 0.713400	 0.503613	 0.500000 
Pt138	 0.682897	 0.617448	 0.500000 
Pt139	 0.778642	 0.582099	 0.558926 
Pt140	 0.748140	 0.695934	 0.558926 
Pt141	 0.682897	 0.617448	 0.617851 
Pt142	 0.652395	 0.731284	 0.617851 
Pt143	 0.748140	 0.695934	 0.676777 
Pt144	 0.717638	 0.809770	 0.676777 
Pt145	 0.652395	 0.731284	 0.735702 
Pt146	 0.621893	 0.845119	 0.735702 
Pt147	 0.874387	 0.546749	 0.382149 
Pt148	 0.874387	 0.546749	 0.500000 
Pt149	 0.843885	 0.660585	 0.500000 
Pt150	 0.843885	 0.660585	 0.617851 
Pt151	 0.813383	 0.774420	 0.617851 
Pt152	 0.326182	 0.338854	 0.558926 
Pt153	 0.230437	 0.374203	 0.617851 
Pt154	 0.326182	 0.338854	 0.676777 
Pt155	 0.295679	 0.452689	 0.676777 
Pt156	 0.517671	 0.268155	 0.441074 
Pt157	 0.421926	 0.303504	 0.500000 
Pt158	 0.517671	 0.268155	 0.558926 
Pt159	 0.487169	 0.381990	 0.558926 
Pt160	 0.421926	 0.303504	 0.617851 
Pt161	 0.391424	 0.417340	 0.617851 
Pt162	 0.487169	 0.381990	 0.676777 
Pt163	 0.456667	 0.495826	 0.676777 
Pt164	 0.391424	 0.417340	 0.735702 
Pt165	 0.360922	 0.531175	 0.735702 
Pt166	 0.456667	 0.495826	 0.794628 
Pt167	 0.426165	 0.609661	 0.794628 
Pt168	 0.613416	 0.232806	 0.382149 
Pt169	 0.678659	 0.311291	 0.441074 
Pt170	 0.613416	 0.232806	 0.500000 
Pt171	 0.582914	 0.346641	 0.500000 
Pt172	 0.678659	 0.311291	 0.558926 
Pt173	 0.648157	 0.425127	 0.558926 
Pt174	 0.582914	 0.346641	 0.617851 
Pt175	 0.552412	 0.460476	 0.617851 
Pt176	 0.648157	 0.425127	 0.676777 
Pt177	 0.617655	 0.538962	 0.676777 
Pt178	 0.552412	 0.460476	 0.735702 
Pt179	 0.521910	 0.574312	 0.735702 
Pt180	 0.617655	 0.538962	 0.794628 
Pt181	 0.587153	 0.652798	 0.794628 
Pt182	 0.521910	 0.574312	 0.853553 
Pt183	 0.491408	 0.688147	 0.853553 
Pt184	 0.743902	 0.389777	 0.500000 
Pt185	 0.809144	 0.468263	 0.558926 
Pt186	 0.743902	 0.389777	 0.617851 
Pt187	 0.713400	 0.503613	 0.617851 
Pt188	 0.809144	 0.468263	 0.676777 
Pt189	 0.778642	 0.582099	 0.676777 
Pt190	 0.713400	 0.503613	 0.735702 
Pt191	 0.682897	 0.617448	 0.735702 
Pt192	 0.874387	 0.546749	 0.617851 
Pt193	 0.517671	 0.268155	 0.676777 
Pt194	 0.421926	 0.303504	 0.735702 
Pt195	 0.487169	 0.381990	 0.794628 
Pt196	 0.613416	 0.232806	 0.617851 
Pt197	 0.678659	 0.311291	 0.676777 
Pt198	 0.582914	 0.346641	 0.735702 
Pt199	 0.648157	 0.425127	 0.794628 
Pt200	 0.552412	 0.460476	 0.853553 
Pt201	 0.743902	 0.389777	 0.735702 
#                 ---end-of-data-block---
