data_Pt structure along [001] nx 5 ny 5 nz 1
_cell_length_a               19.600000
_cell_length_b               19.600000
_cell_length_c               3.920000
_cell_angle_alpha          90.000000
_cell_angle_beta           90.000000
_cell_angle_gamma          90.000000
_symmetry_cell_setting          Triclinic
_symmetry_space_group_name_H-M 'P 1' 
loop_
_atom_site_label
_atom_site_fract_x
_atom_site_fract_y
_atom_site_fract_z
Pt1	 0.162323	 0.032891	 0.000000 
Pt2	 0.262323	 0.132891	 0.000000 
Pt3	 0.262323	 0.032891	 0.500000 
Pt4	 0.162323	 0.132891	 0.500000 
Pt5	 0.162323	 0.232891	 0.000000 
Pt6	 0.262323	 0.332891	 0.000000 
Pt7	 0.262323	 0.232891	 0.500000 
Pt8	 0.162323	 0.332891	 0.500000 
Pt9	 0.162323	 0.432891	 0.000000 
Pt10	 0.262323	 0.532891	 0.000000 
Pt11	 0.262323	 0.432891	 0.500000 
Pt12	 0.162323	 0.532891	 0.500000 
Pt13	 0.162323	 0.632891	 0.000000 
Pt14	 0.262323	 0.732891	 0.000000 
Pt15	 0.262323	 0.632891	 0.500000 
Pt16	 0.162323	 0.732891	 0.500000 
Pt17	 0.162323	 0.832891	 0.000000 
Pt18	 0.262323	 0.932891	 0.000000 
Pt19	 0.262323	 0.832891	 0.500000 
Pt20	 0.162323	 0.932891	 0.500000 
Pt21	 0.362323	 0.032891	 0.000000 
Pt22	 0.462323	 0.132891	 0.000000 
Pt23	 0.462323	 0.032891	 0.500000 
Pt24	 0.362323	 0.132891	 0.500000 
Pt25	 0.362323	 0.232891	 0.000000 
Pt26	 0.462323	 0.332891	 0.000000 
Pt27	 0.462323	 0.232891	 0.500000 
Pt28	 0.362323	 0.332891	 0.500000 
Pt29	 0.362323	 0.432891	 0.000000 
Pt30	 0.462323	 0.532891	 0.000000 
Pt31	 0.462323	 0.432891	 0.500000 
Pt32	 0.362323	 0.532891	 0.500000 
Pt33	 0.362323	 0.632891	 0.000000 
Pt34	 0.462323	 0.732891	 0.000000 
Pt35	 0.462323	 0.632891	 0.500000 
Pt36	 0.362323	 0.732891	 0.500000 
Pt37	 0.362323	 0.832891	 0.000000 
Pt38	 0.462323	 0.932891	 0.000000 
Pt39	 0.462323	 0.832891	 0.500000 
Pt40	 0.362323	 0.932891	 0.500000 
Pt41	 0.562323	 0.032891	 0.000000 
Pt42	 0.662323	 0.132891	 0.000000 
Pt43	 0.662323	 0.032891	 0.500000 
Pt44	 0.562323	 0.132891	 0.500000 
Pt45	 0.562323	 0.232891	 0.000000 
Pt46	 0.662323	 0.332891	 0.000000 
Pt47	 0.662323	 0.232891	 0.500000 
Pt48	 0.562323	 0.332891	 0.500000 
Pt49	 0.562323	 0.432891	 0.000000 
Pt50	 0.662323	 0.532891	 0.000000 
Pt51	 0.662323	 0.432891	 0.500000 
Pt52	 0.562323	 0.532891	 0.500000 
Pt53	 0.562323	 0.632891	 0.000000 
Pt54	 0.662323	 0.732891	 0.000000 
Pt55	 0.662323	 0.632891	 0.500000 
Pt56	 0.562323	 0.732891	 0.500000 
Pt57	 0.562323	 0.832891	 0.000000 
Pt58	 0.662323	 0.932891	 0.000000 
Pt59	 0.662323	 0.832891	 0.500000 
Pt60	 0.562323	 0.932891	 0.500000 
Pt61	 0.762323	 0.032891	 0.000000 
Pt62	 0.862323	 0.132891	 0.000000 
Pt63	 0.862323	 0.032891	 0.500000 
Pt64	 0.762323	 0.132891	 0.500000 
Pt65	 0.762323	 0.232891	 0.000000 
Pt66	 0.862323	 0.332891	 0.000000 
Pt67	 0.862323	 0.232891	 0.500000 
Pt68	 0.762323	 0.332891	 0.500000 
Pt69	 0.762323	 0.432891	 0.000000 
Pt70	 0.862323	 0.532891	 0.000000 
Pt71	 0.862323	 0.432891	 0.500000 
Pt72	 0.762323	 0.532891	 0.500000 
Pt73	 0.762323	 0.632891	 0.000000 
Pt74	 0.862323	 0.732891	 0.000000 
Pt75	 0.862323	 0.632891	 0.500000 
Pt76	 0.762323	 0.732891	 0.500000 
Pt77	 0.762323	 0.832891	 0.000000 
Pt78	 0.862323	 0.932891	 0.000000 
Pt79	 0.862323	 0.832891	 0.500000 
Pt80	 0.762323	 0.932891	 0.500000 
Pt81	 0.962323	 0.032891	 0.000000 
Pt82	 0.062323	 0.132891	 0.000000 
Pt83	 0.062323	 0.032891	 0.500000 
Pt84	 0.962323	 0.132891	 0.500000 
Pt85	 0.962323	 0.232891	 0.000000 
Pt86	 0.062323	 0.332891	 0.000000 
Pt87	 0.062323	 0.232891	 0.500000 
Pt88	 0.962323	 0.332891	 0.500000 
Pt89	 0.962323	 0.432891	 0.000000 
Pt90	 0.062323	 0.532891	 0.000000 
Pt91	 0.062323	 0.432891	 0.500000 
Pt92	 0.962323	 0.532891	 0.500000 
Pt93	 0.962323	 0.632891	 0.000000 
Pt94	 0.062323	 0.732891	 0.000000 
Pt95	 0.062323	 0.632891	 0.500000 
Pt96	 0.962323	 0.732891	 0.500000 
Pt97	 0.962323	 0.832891	 0.000000 
Pt98	 0.062323	 0.932891	 0.000000 
Pt99	 0.062323	 0.832891	 0.500000 
Pt100	 0.962323	 0.932891	 0.500000 
#                 ---end-of-data-block---
