data_Pt structure along [001] nx 7 ny 5 nz 1
_cell_length_a               19.600000
_cell_length_b               19.600000
_cell_length_c               2.771859
_cell_angle_alpha          90.000000
_cell_angle_beta           90.000000
_cell_angle_gamma          90.000000
_symmetry_cell_setting          Triclinic
_symmetry_space_group_name_H-M 'P 1' 
loop_
_atom_site_label
_atom_site_fract_x
_atom_site_fract_y
_atom_site_fract_z
Co1	 0.362603	 0.057263	 0.500000 
Co2	 0.241892	 0.077974	 0.000000 
Co3	 0.221182	 0.198684	 0.500000 
Co4	 0.100471	 0.219395	 0.000000 
Co5	 0.079760	 0.340106	 0.500000 
Co6	 0.483314	 0.036552	 0.000000 
Co7	 0.462603	 0.157263	 0.500000 
Co8	 0.341892	 0.177974	 0.000000 
Co9	 0.321182	 0.298684	 0.500000 
Co10	 0.200471	 0.319395	 0.000000 
Co11	 0.179760	 0.440106	 0.500000 
Co12	 0.059050	 0.460816	 0.000000 
Co13	 0.038339	 0.581527	 0.500000 
Co14	 0.604024	 0.015842	 0.500000 
Co15	 0.583314	 0.136552	 0.000000 
Co16	 0.562603	 0.257263	 0.500000 
Co17	 0.441892	 0.277974	 0.000000 
Co18	 0.421182	 0.398684	 0.500000 
Co19	 0.300471	 0.419395	 0.000000 
Co20	 0.279760	 0.540106	 0.500000 
Co21	 0.159050	 0.560816	 0.000000 
Co22	 0.138339	 0.681527	 0.500000 
Co23	 0.017628	 0.702238	 0.000000 
Co24	 0.704024	 0.115842	 0.500000 
Co25	 0.683314	 0.236552	 0.000000 
Co26	 0.662603	 0.357263	 0.500000 
Co27	 0.541892	 0.377974	 0.000000 
Co28	 0.521182	 0.498684	 0.500000 
Co29	 0.400471	 0.519395	 0.000000 
Co30	 0.379760	 0.640106	 0.500000 
Co31	 0.259050	 0.660816	 0.000000 
Co32	 0.238339	 0.781527	 0.500000 
Co33	 0.117628	 0.802238	 0.000000 
Co34	 0.804024	 0.215842	 0.500000 
Co35	 0.783314	 0.336552	 0.000000 
Co36	 0.762603	 0.457263	 0.500000 
Co37	 0.641892	 0.477974	 0.000000 
Co38	 0.621182	 0.598684	 0.500000 
Co39	 0.500471	 0.619395	 0.000000 
Co40	 0.479760	 0.740106	 0.500000 
Co41	 0.359050	 0.760816	 0.000000 
Co42	 0.338339	 0.881527	 0.500000 
Co43	 0.217628	 0.902238	 0.000000 
Co44	 0.904024	 0.315842	 0.500000 
Co45	 0.883314	 0.436552	 0.000000 
Co46	 0.862603	 0.557263	 0.500000 
Co47	 0.741892	 0.577974	 0.000000 
Co48	 0.721182	 0.698684	 0.500000 
Co49	 0.600471	 0.719395	 0.000000 
Co50	 0.579760	 0.840106	 0.500000 
Co51	 0.459050	 0.860816	 0.000000 
Co52	 0.438339	 0.981527	 0.500000 
Co53	 0.983314	 0.536552	 0.000000 
Co54	 0.962603	 0.657263	 0.500000 
Co55	 0.841892	 0.677974	 0.000000 
Co56	 0.821182	 0.798684	 0.500000 
Co57	 0.700471	 0.819395	 0.000000 
Co58	 0.679760	 0.940106	 0.500000 
Co59	 0.559050	 0.960816	 0.000000 
#                 ---end-of-data-block---
