data_NiO [110] nx 4 ny 3 nz 1
_cell_length_a               21.732000
_cell_length_b               21.732000
_cell_length_c               2.957500
_cell_angle_alpha          90.000000
_cell_angle_beta           90.000000
_cell_angle_gamma          90.000000
_symmetry_cell_setting          Triclinic
_symmetry_space_group_name_H-M 'P 1' 
loop_
_atom_site_label
_atom_site_fract_x
_atom_site_fract_y
_atom_site_fract_z
Ni1	 0.381819	 0.328920	 1.000000 
Ni2	 0.277165	 0.415914	 0.000000 
Ni3	 0.400194	 0.563916	 0.000000 
Ni4	 0.286353	 0.533413	 0.500000 
Ni5	 0.267979	 0.298417	 0.500000 
Ni6	 0.391005	 0.446418	 0.500000 
Ni7	 0.295546	 0.650895	 1.000000 
Ni8	 0.190892	 0.737890	 0.000000 
Ni9	 0.313921	 0.885892	 0.000000 
Ni10	 0.200080	 0.855388	 0.500000 
Ni11	 0.181706	 0.620392	 0.500000 
Ni12	 0.304732	 0.768393	 0.500000 
Ni13	 0.468092	 0.006945	 1.000000 
Ni14	 0.363438	 0.093939	 0.000000 
Ni15	 0.486467	 0.241941	 0.000000 
Ni16	 0.372626	 0.211438	 0.500000 
Ni17	 0.477278	 0.124443	 0.500000 
Ni18	 0.609500	 0.389927	 1.000000 
Ni19	 0.504845	 0.476921	 0.000000 
Ni20	 0.627874	 0.624923	 0.000000 
Ni21	 0.514034	 0.594420	 0.500000 
Ni22	 0.495659	 0.359423	 0.500000 
Ni23	 0.618686	 0.507425	 0.500000 
Ni24	 0.523227	 0.711902	 1.000000 
Ni25	 0.418572	 0.798897	 0.000000 
Ni26	 0.541601	 0.946898	 0.000000 
Ni27	 0.427761	 0.916395	 0.500000 
Ni28	 0.409386	 0.681399	 0.500000 
Ni29	 0.532413	 0.829400	 0.500000 
Ni30	 0.695773	 0.067952	 1.000000 
Ni31	 0.591119	 0.154946	 0.000000 
Ni32	 0.714147	 0.302948	 0.000000 
Ni33	 0.600307	 0.272444	 0.500000 
Ni34	 0.581932	 0.037448	 0.500000 
Ni35	 0.704959	 0.185449	 0.500000 
Ni36	 0.837180	 0.450934	 1.000000 
Ni37	 0.732526	 0.537928	 0.000000 
Ni38	 0.855555	 0.685930	 0.000000 
Ni39	 0.741715	 0.655427	 0.500000 
Ni40	 0.723340	 0.420430	 0.500000 
Ni41	 0.846366	 0.568432	 0.500000 
Ni42	 0.750907	 0.772909	 1.000000 
Ni43	 0.646253	 0.859903	 0.000000 
Ni44	 0.655442	 0.977402	 0.500000 
Ni45	 0.637067	 0.742406	 0.500000 
Ni46	 0.760093	 0.890407	 0.500000 
Ni47	 0.923453	 0.128958	 1.000000 
Ni48	 0.818799	 0.215953	 0.000000 
Ni49	 0.941828	 0.363955	 0.000000 
Ni50	 0.827988	 0.333451	 0.500000 
Ni51	 0.809613	 0.098455	 0.500000 
Ni52	 0.932639	 0.246456	 0.500000 
Ni53	 0.154138	 0.267913	 1.000000 
Ni54	 0.960207	 0.598935	 0.000000 
Ni55	 0.172513	 0.502909	 0.000000 
Ni56	 0.058673	 0.472406	 0.500000 
Ni57	 0.951021	 0.481437	 0.500000 
Ni58	 0.163325	 0.385411	 0.500000 
Ni59	 0.067865	 0.589888	 1.000000 
Ni60	 0.873934	 0.920910	 0.000000 
Ni61	 0.086240	 0.824885	 0.000000 
Ni62	 0.864748	 0.803412	 0.500000 
Ni63	 0.077052	 0.707386	 0.500000 
Ni64	 0.258786	 0.180934	 0.000000 
Ni65	 0.144946	 0.150431	 0.500000 
Ni66	 0.249598	 0.063436	 0.500000 
#                 ---end-of-data-block---
