data_Pt structure along [001] nx 4 ny 5 nz 1
_cell_length_a               22.090016
_cell_length_b               22.090016
_cell_length_c               5.543717
_cell_angle_alpha          90.000000
_cell_angle_beta           90.000000
_cell_angle_gamma          90.000000
_symmetry_cell_setting          Triclinic
_symmetry_space_group_name_H-M 'P 1' 
loop_
_atom_site_label
_atom_site_fract_x
_atom_site_fract_y
_atom_site_fract_z
Sr1	 0.771869	 0.079703	 0.000000 
Ti2	 0.686492	 0.102580	 0.500000 
Ti3	 0.483387	 0.027592	 0.000000 
Sr4	 0.601116	 0.125456	 0.000000 
Ti5	 0.515739	 0.148333	 0.500000 
Sr6	 0.568763	 0.004716	 0.500000 
Ti7	 0.312634	 0.073345	 0.000000 
Sr8	 0.430363	 0.171209	 0.000000 
Ti9	 0.344986	 0.194086	 0.500000 
Sr10	 0.398010	 0.050469	 0.500000 
Ti11	 0.141880	 0.119098	 0.000000 
Sr12	 0.259609	 0.216963	 0.000000 
Ti13	 0.174233	 0.239839	 0.500000 
Sr14	 0.227257	 0.096222	 0.500000 
Sr15	 0.088856	 0.262716	 0.000000 
Ti16	 0.003480	 0.285592	 0.500000 
Sr17	 0.056504	 0.141975	 0.500000 
Ti18	 0.718845	 0.223320	 0.000000 
Sr19	 0.836574	 0.321185	 0.000000 
Ti20	 0.751197	 0.344061	 0.500000 
Sr21	 0.804221	 0.200444	 0.500000 
Ti22	 0.548091	 0.269074	 0.000000 
Sr23	 0.665820	 0.366938	 0.000000 
Ti24	 0.580444	 0.389814	 0.500000 
Sr25	 0.633468	 0.246197	 0.500000 
Ti26	 0.377338	 0.314827	 0.000000 
Sr27	 0.495067	 0.412691	 0.000000 
Ti28	 0.409691	 0.435567	 0.500000 
Sr29	 0.462715	 0.291950	 0.500000 
Ti30	 0.206585	 0.360580	 0.000000 
Sr31	 0.324314	 0.458444	 0.000000 
Ti32	 0.238938	 0.481321	 0.500000 
Sr33	 0.291962	 0.337703	 0.500000 
Ti34	 0.035832	 0.406333	 0.000000 
Sr35	 0.153561	 0.504197	 0.000000 
Ti36	 0.068184	 0.527074	 0.500000 
Sr37	 0.121209	 0.383457	 0.500000 
Ti38	 0.783549	 0.464802	 0.000000 
Sr39	 0.901278	 0.562666	 0.000000 
Ti40	 0.815902	 0.585543	 0.500000 
Sr41	 0.868926	 0.441925	 0.500000 
Ti42	 0.612796	 0.510555	 0.000000 
Sr43	 0.730525	 0.608419	 0.000000 
Ti44	 0.645149	 0.631296	 0.500000 
Sr45	 0.698173	 0.487678	 0.500000 
Ti46	 0.442043	 0.556308	 0.000000 
Sr47	 0.559772	 0.654172	 0.000000 
Ti48	 0.474395	 0.677049	 0.500000 
Sr49	 0.527420	 0.533432	 0.500000 
Ti50	 0.271290	 0.602061	 0.000000 
Sr51	 0.389019	 0.699926	 0.000000 
Ti52	 0.303642	 0.722802	 0.500000 
Sr53	 0.356666	 0.579185	 0.500000 
Ti54	 0.100537	 0.647815	 0.000000 
Sr55	 0.218266	 0.745679	 0.000000 
Ti56	 0.132889	 0.768555	 0.500000 
Sr57	 0.185913	 0.624938	 0.500000 
Ti58	 0.848254	 0.706283	 0.000000 
Sr59	 0.965983	 0.804147	 0.000000 
Ti60	 0.880607	 0.827024	 0.500000 
Sr61	 0.933631	 0.683407	 0.500000 
Ti62	 0.677501	 0.752036	 0.000000 
Sr63	 0.795230	 0.849901	 0.000000 
Ti64	 0.709853	 0.872777	 0.500000 
Sr65	 0.762878	 0.729160	 0.500000 
Ti66	 0.506748	 0.797790	 0.000000 
Sr67	 0.624477	 0.895654	 0.000000 
Ti68	 0.539100	 0.918530	 0.500000 
Sr69	 0.592124	 0.774913	 0.500000 
Ti70	 0.335995	 0.843543	 0.000000 
Sr71	 0.453724	 0.941407	 0.000000 
Ti72	 0.368347	 0.964284	 0.500000 
Sr73	 0.421371	 0.820666	 0.500000 
Ti74	 0.165241	 0.889296	 0.000000 
Sr75	 0.282970	 0.987160	 0.000000 
Sr76	 0.250618	 0.866419	 0.500000 
#                 ---end-of-data-block---
