data_Graphite [001] nx 8 ny 5 nz 1
_cell_length_a               21.270000
_cell_length_b               21.270000
_cell_length_c               3.348000
_cell_angle_alpha          90.000000
_cell_angle_beta           90.000000
_cell_angle_gamma          90.000000
_symmetry_cell_setting          Triclinic
_symmetry_space_group_name_H-M 'P 1' 
loop_
_atom_site_label
_atom_site_fract_x
_atom_site_fract_y
_atom_site_fract_z
C1	 0.780927	 0.064676	 0.000000 
C2	 0.647594	 0.064676	 0.000000 
C3	 0.747594	 0.122410	 0.000000 
C4	 0.680927	 0.122410	 0.000000 
C5	 0.580927	 0.064676	 0.000000 
C6	 0.447594	 0.064676	 0.000000 
C7	 0.547594	 0.122410	 0.000000 
C8	 0.480927	 0.122410	 0.000000 
C9	 0.380927	 0.064676	 0.000000 
C10	 0.247594	 0.064676	 0.000000 
C11	 0.347594	 0.122410	 0.000000 
C12	 0.280927	 0.122410	 0.000000 
C13	 0.180927	 0.064676	 0.000000 
C14	 0.047594	 0.064676	 0.000000 
C15	 0.147594	 0.122410	 0.000000 
C16	 0.080927	 0.122410	 0.000000 
C17	 0.980927	 0.064676	 0.000000 
C18	 0.847594	 0.064676	 0.000000 
C19	 0.947594	 0.122410	 0.000000 
C20	 0.880927	 0.122410	 0.000000 
C21	 0.780927	 0.180144	 0.000000 
C22	 0.647594	 0.180144	 0.000000 
C23	 0.747594	 0.237878	 0.000000 
C24	 0.680927	 0.237878	 0.000000 
C25	 0.580927	 0.180144	 0.000000 
C26	 0.447594	 0.180144	 0.000000 
C27	 0.547594	 0.237878	 0.000000 
C28	 0.480927	 0.237878	 0.000000 
C29	 0.380927	 0.180144	 0.000000 
C30	 0.247594	 0.180144	 0.000000 
C31	 0.347594	 0.237878	 0.000000 
C32	 0.280927	 0.237878	 0.000000 
C33	 0.180927	 0.180144	 0.000000 
C34	 0.047594	 0.180144	 0.000000 
C35	 0.147594	 0.237878	 0.000000 
C36	 0.080927	 0.237878	 0.000000 
C37	 0.980927	 0.180144	 0.000000 
C38	 0.847594	 0.180144	 0.000000 
C39	 0.947594	 0.237878	 0.000000 
C40	 0.880927	 0.237878	 0.000000 
C41	 0.780927	 0.295612	 0.000000 
C42	 0.647594	 0.295612	 0.000000 
C43	 0.747594	 0.353346	 0.000000 
C44	 0.680927	 0.353346	 0.000000 
C45	 0.580927	 0.295612	 0.000000 
C46	 0.447594	 0.295612	 0.000000 
C47	 0.547594	 0.353346	 0.000000 
C48	 0.480927	 0.353346	 0.000000 
C49	 0.380927	 0.295612	 0.000000 
C50	 0.247594	 0.295612	 0.000000 
C51	 0.347594	 0.353346	 0.000000 
C52	 0.280927	 0.353346	 0.000000 
C53	 0.180927	 0.295612	 0.000000 
C54	 0.047594	 0.295612	 0.000000 
C55	 0.147594	 0.353346	 0.000000 
C56	 0.080927	 0.353346	 0.000000 
C57	 0.980927	 0.295612	 0.000000 
C58	 0.847594	 0.295612	 0.000000 
C59	 0.947594	 0.353346	 0.000000 
C60	 0.880927	 0.353346	 0.000000 
C61	 0.780927	 0.411080	 0.000000 
C62	 0.647594	 0.411080	 0.000000 
C63	 0.747594	 0.468814	 0.000000 
C64	 0.680927	 0.468814	 0.000000 
C65	 0.580927	 0.411080	 0.000000 
C66	 0.447594	 0.411080	 0.000000 
C67	 0.547594	 0.468814	 0.000000 
C68	 0.480927	 0.468814	 0.000000 
C69	 0.380927	 0.411080	 0.000000 
C70	 0.247594	 0.411080	 0.000000 
C71	 0.347594	 0.468814	 0.000000 
C72	 0.280927	 0.468814	 0.000000 
C73	 0.180927	 0.411080	 0.000000 
C74	 0.047594	 0.411080	 0.000000 
C75	 0.147594	 0.468814	 0.000000 
C76	 0.080927	 0.468814	 0.000000 
C77	 0.980927	 0.411080	 0.000000 
C78	 0.847594	 0.411080	 0.000000 
C79	 0.947594	 0.468814	 0.000000 
C80	 0.880927	 0.468814	 0.000000 
C81	 0.780927	 0.526548	 0.000000 
C82	 0.647594	 0.526548	 0.000000 
C83	 0.747594	 0.584281	 0.000000 
C84	 0.680927	 0.584281	 0.000000 
C85	 0.580927	 0.526548	 0.000000 
C86	 0.447594	 0.526548	 0.000000 
C87	 0.547594	 0.584281	 0.000000 
C88	 0.480927	 0.584281	 0.000000 
C89	 0.380927	 0.526548	 0.000000 
C90	 0.247594	 0.526548	 0.000000 
C91	 0.347594	 0.584281	 0.000000 
C92	 0.280927	 0.584281	 0.000000 
C93	 0.180927	 0.526548	 0.000000 
C94	 0.047594	 0.526548	 0.000000 
C95	 0.147594	 0.584281	 0.000000 
C96	 0.080927	 0.584281	 0.000000 
C97	 0.980927	 0.526548	 0.000000 
C98	 0.847594	 0.526548	 0.000000 
C99	 0.947594	 0.584281	 0.000000 
C100	 0.880927	 0.584281	 0.000000 
C101	 0.780927	 0.642015	 0.000000 
C102	 0.647594	 0.642015	 0.000000 
C103	 0.747594	 0.699749	 0.000000 
C104	 0.680927	 0.699749	 0.000000 
C105	 0.580927	 0.642015	 0.000000 
C106	 0.447594	 0.642015	 0.000000 
C107	 0.547594	 0.699749	 0.000000 
C108	 0.480927	 0.699749	 0.000000 
C109	 0.380927	 0.642015	 0.000000 
C110	 0.247594	 0.642015	 0.000000 
C111	 0.347594	 0.699749	 0.000000 
C112	 0.280927	 0.699749	 0.000000 
C113	 0.180927	 0.642015	 0.000000 
C114	 0.047594	 0.642015	 0.000000 
C115	 0.147594	 0.699749	 0.000000 
C116	 0.080927	 0.699749	 0.000000 
C117	 0.980927	 0.642015	 0.000000 
C118	 0.847594	 0.642015	 0.000000 
C119	 0.947594	 0.699749	 0.000000 
C120	 0.880927	 0.699749	 0.000000 
C121	 0.780927	 0.757483	 0.000000 
C122	 0.647594	 0.757483	 0.000000 
C123	 0.747594	 0.815217	 0.000000 
C124	 0.680927	 0.815217	 0.000000 
C125	 0.580927	 0.757483	 0.000000 
C126	 0.447594	 0.757483	 0.000000 
C127	 0.547594	 0.815217	 0.000000 
C128	 0.480927	 0.815217	 0.000000 
C129	 0.380927	 0.757483	 0.000000 
C130	 0.247594	 0.757483	 0.000000 
C131	 0.347594	 0.815217	 0.000000 
C132	 0.280927	 0.815217	 0.000000 
C133	 0.180927	 0.757483	 0.000000 
C134	 0.047594	 0.757483	 0.000000 
C135	 0.147594	 0.815217	 0.000000 
C136	 0.080927	 0.815217	 0.000000 
C137	 0.980927	 0.757483	 0.000000 
C138	 0.847594	 0.757483	 0.000000 
C139	 0.947594	 0.815217	 0.000000 
C140	 0.880927	 0.815217	 0.000000 
C141	 0.780927	 0.872951	 0.000000 
C142	 0.647594	 0.872951	 0.000000 
C143	 0.747594	 0.930685	 0.000000 
C144	 0.680927	 0.930685	 0.000000 
C145	 0.580927	 0.872951	 0.000000 
C146	 0.447594	 0.872951	 0.000000 
C147	 0.547594	 0.930685	 0.000000 
C148	 0.480927	 0.930685	 0.000000 
C149	 0.380927	 0.872951	 0.000000 
C150	 0.247594	 0.872951	 0.000000 
C151	 0.347594	 0.930685	 0.000000 
C152	 0.280927	 0.930685	 0.000000 
C153	 0.180927	 0.872951	 0.000000 
C154	 0.047594	 0.872951	 0.000000 
C155	 0.147594	 0.930685	 0.000000 
C156	 0.080927	 0.930685	 0.000000 
C157	 0.980927	 0.872951	 0.000000 
C158	 0.847594	 0.872951	 0.000000 
C159	 0.947594	 0.930685	 0.000000 
C160	 0.880927	 0.930685	 0.000000 
#                 ---end-of-data-block---
