data_A fcc partile with size of 24 A with 100/111/110 ratio of 1/0.931533/2
_cell_length_a               31.360000
_cell_length_b               31.360000
_cell_length_c               31.360000
_cell_angle_alpha          90.000000
_cell_angle_beta           90.000000
_cell_angle_gamma          90.000000
_symmetry_cell_setting          Triclinic
_symmetry_space_group_name_H-M 'P 1' 
loop_
_atom_site_label
_atom_site_fract_x
_atom_site_fract_y
_atom_site_fract_z
Pt1	 0.175370	 0.478287	 0.279029 
Pt2	 0.314416	 0.542346	 0.190641 
Pt3	 0.237870	 0.586541	 0.190641 
Pt4	 0.244893	 0.510317	 0.234835 
Pt5	 0.168346	 0.554511	 0.234835 
Pt6	 0.237870	 0.586541	 0.279029 
Pt7	 0.161323	 0.630735	 0.279029 
Pt8	 0.168346	 0.554511	 0.323223 
Pt9	 0.161323	 0.630735	 0.367417 
Pt10	 0.383939	 0.574376	 0.146447 
Pt11	 0.307393	 0.618570	 0.146447 
Pt12	 0.376916	 0.650600	 0.190641 
Pt13	 0.300370	 0.694794	 0.190641 
Pt14	 0.307393	 0.618570	 0.234835 
Pt15	 0.230846	 0.662764	 0.234835 
Pt16	 0.300370	 0.694794	 0.279029 
Pt17	 0.223823	 0.738988	 0.279029 
Pt18	 0.230846	 0.662764	 0.323223 
Pt19	 0.154300	 0.706958	 0.323223 
Pt20	 0.223823	 0.738988	 0.367417 
Pt21	 0.154300	 0.706958	 0.411612 
Pt22	 0.369893	 0.726823	 0.234835 
Pt23	 0.293346	 0.771017	 0.234835 
Pt24	 0.362870	 0.803047	 0.279029 
Pt25	 0.293346	 0.771017	 0.323223 
Pt26	 0.189416	 0.325840	 0.367417 
Pt27	 0.328463	 0.389899	 0.279029 
Pt28	 0.251916	 0.434093	 0.279029 
Pt29	 0.258939	 0.357869	 0.323223 
Pt30	 0.182393	 0.402064	 0.323223 
Pt31	 0.251916	 0.434093	 0.367417 
Pt32	 0.175370	 0.478287	 0.367417 
Pt33	 0.182393	 0.402064	 0.411612 
Pt34	 0.175370	 0.478287	 0.455806 
Pt35	 0.467509	 0.453958	 0.190641 
Pt36	 0.390963	 0.498152	 0.190641 
Pt37	 0.397986	 0.421928	 0.234835 
Pt38	 0.321439	 0.466123	 0.234835 
Pt39	 0.390963	 0.498152	 0.279029 
Pt40	 0.314416	 0.542346	 0.279029 
Pt41	 0.321439	 0.466123	 0.323223 
Pt42	 0.244893	 0.510317	 0.323223 
Pt43	 0.314416	 0.542346	 0.367417 
Pt44	 0.237870	 0.586541	 0.367417 
Pt45	 0.244893	 0.510317	 0.411612 
Pt46	 0.168346	 0.554511	 0.411612 
Pt47	 0.237870	 0.586541	 0.455806 
Pt48	 0.161323	 0.630735	 0.455806 
Pt49	 0.168346	 0.554511	 0.500000 
Pt50	 0.161323	 0.630735	 0.544194 
Pt51	 0.537033	 0.485987	 0.146447 
Pt52	 0.460486	 0.530182	 0.146447 
Pt53	 0.530009	 0.562211	 0.190641 
Pt54	 0.453463	 0.606405	 0.190641 
Pt55	 0.460486	 0.530182	 0.234835 
Pt56	 0.383939	 0.574376	 0.234835 
Pt57	 0.453463	 0.606405	 0.279029 
Pt58	 0.376916	 0.650600	 0.279029 
Pt59	 0.383939	 0.574376	 0.323223 
Pt60	 0.307393	 0.618570	 0.323223 
Pt61	 0.376916	 0.650600	 0.367417 
Pt62	 0.300370	 0.694794	 0.367417 
Pt63	 0.307393	 0.618570	 0.411612 
Pt64	 0.230846	 0.662764	 0.411612 
Pt65	 0.300370	 0.694794	 0.455806 
Pt66	 0.223823	 0.738988	 0.455806 
Pt67	 0.230846	 0.662764	 0.500000 
Pt68	 0.154300	 0.706958	 0.500000 
Pt69	 0.223823	 0.738988	 0.544194 
Pt70	 0.154300	 0.706958	 0.588388 
Pt71	 0.522986	 0.638435	 0.234835 
Pt72	 0.446439	 0.682629	 0.234835 
Pt73	 0.515963	 0.714659	 0.279029 
Pt74	 0.439416	 0.758853	 0.279029 
Pt75	 0.446439	 0.682629	 0.323223 
Pt76	 0.369893	 0.726823	 0.323223 
Pt77	 0.439416	 0.758853	 0.367417 
Pt78	 0.362870	 0.803047	 0.367417 
Pt79	 0.369893	 0.726823	 0.411612 
Pt80	 0.293346	 0.771017	 0.411612 
Pt81	 0.362870	 0.803047	 0.455806 
Pt82	 0.293346	 0.771017	 0.500000 
Pt83	 0.508939	 0.790882	 0.323223 
Pt84	 0.432393	 0.835076	 0.323223 
Pt85	 0.501916	 0.867106	 0.367417 
Pt86	 0.432393	 0.835076	 0.411612 
Pt87	 0.342509	 0.237452	 0.367417 
Pt88	 0.265963	 0.281646	 0.367417 
Pt89	 0.272986	 0.205422	 0.411612 
Pt90	 0.196439	 0.249616	 0.411612 
Pt91	 0.265963	 0.281646	 0.455806 
Pt92	 0.189416	 0.325840	 0.455806 
Pt93	 0.196439	 0.249616	 0.500000 
Pt94	 0.189416	 0.325840	 0.544194 
Pt95	 0.481556	 0.301511	 0.279029 
Pt96	 0.405009	 0.345705	 0.279029 
Pt97	 0.412033	 0.269481	 0.323223 
Pt98	 0.335486	 0.313675	 0.323223 
Pt99	 0.405009	 0.345705	 0.367417 
Pt100	 0.328463	 0.389899	 0.367417 
Pt101	 0.335486	 0.313675	 0.411612 
Pt102	 0.258939	 0.357869	 0.411612 
Pt103	 0.328463	 0.389899	 0.455806 
Pt104	 0.251916	 0.434093	 0.455806 
Pt105	 0.258939	 0.357869	 0.500000 
Pt106	 0.182393	 0.402064	 0.500000 
Pt107	 0.251916	 0.434093	 0.544194 
Pt108	 0.175370	 0.478287	 0.544194 
Pt109	 0.182393	 0.402064	 0.588388 
Pt110	 0.175370	 0.478287	 0.632583 
Pt111	 0.620602	 0.365570	 0.190641 
Pt112	 0.544056	 0.409764	 0.190641 
Pt113	 0.551079	 0.333540	 0.234835 
Pt114	 0.474533	 0.377734	 0.234835 
Pt115	 0.544056	 0.409764	 0.279029 
Pt116	 0.467509	 0.453958	 0.279029 
Pt117	 0.474533	 0.377734	 0.323223 
Pt118	 0.397986	 0.421928	 0.323223 
Pt119	 0.467509	 0.453958	 0.367417 
Pt120	 0.390963	 0.498152	 0.367417 
Pt121	 0.397986	 0.421928	 0.411612 
Pt122	 0.321439	 0.466123	 0.411612 
Pt123	 0.390963	 0.498152	 0.455806 
Pt124	 0.314416	 0.542346	 0.455806 
Pt125	 0.321439	 0.466123	 0.500000 
Pt126	 0.244893	 0.510317	 0.500000 
Pt127	 0.314416	 0.542346	 0.544194 
Pt128	 0.237870	 0.586541	 0.544194 
Pt129	 0.244893	 0.510317	 0.588388 
Pt130	 0.168346	 0.554511	 0.588388 
Pt131	 0.237870	 0.586541	 0.632583 
Pt132	 0.161323	 0.630735	 0.632583 
Pt133	 0.168346	 0.554511	 0.676777 
Pt134	 0.161323	 0.630735	 0.720971 
Pt135	 0.613579	 0.441793	 0.146447 
Pt136	 0.683102	 0.473823	 0.190641 
Pt137	 0.606556	 0.518017	 0.190641 
Pt138	 0.613579	 0.441793	 0.234835 
Pt139	 0.537033	 0.485987	 0.234835 
Pt140	 0.606556	 0.518017	 0.279029 
Pt141	 0.530009	 0.562211	 0.279029 
Pt142	 0.537033	 0.485987	 0.323223 
Pt143	 0.460486	 0.530182	 0.323223 
Pt144	 0.530009	 0.562211	 0.367417 
Pt145	 0.453463	 0.606405	 0.367417 
Pt146	 0.460486	 0.530182	 0.411612 
Pt147	 0.383939	 0.574376	 0.411612 
Pt148	 0.453463	 0.606405	 0.455806 
Pt149	 0.376916	 0.650600	 0.455806 
Pt150	 0.383939	 0.574376	 0.500000 
Pt151	 0.307393	 0.618570	 0.500000 
Pt152	 0.376916	 0.650600	 0.544194 
Pt153	 0.300370	 0.694794	 0.544194 
Pt154	 0.307393	 0.618570	 0.588388 
Pt155	 0.230846	 0.662764	 0.588388 
Pt156	 0.300370	 0.694794	 0.632583 
Pt157	 0.223823	 0.738988	 0.632583 
Pt158	 0.230846	 0.662764	 0.676777 
Pt159	 0.154300	 0.706958	 0.676777 
Pt160	 0.223823	 0.738988	 0.720971 
Pt161	 0.676079	 0.550046	 0.234835 
Pt162	 0.599533	 0.594241	 0.234835 
Pt163	 0.669056	 0.626270	 0.279029 
Pt164	 0.592509	 0.670464	 0.279029 
Pt165	 0.599533	 0.594241	 0.323223 
Pt166	 0.522986	 0.638435	 0.323223 
Pt167	 0.592509	 0.670464	 0.367417 
Pt168	 0.515963	 0.714659	 0.367417 
Pt169	 0.522986	 0.638435	 0.411612 
Pt170	 0.446439	 0.682629	 0.411612 
Pt171	 0.515963	 0.714659	 0.455806 
Pt172	 0.439416	 0.758853	 0.455806 
Pt173	 0.446439	 0.682629	 0.500000 
Pt174	 0.369893	 0.726823	 0.500000 
Pt175	 0.439416	 0.758853	 0.544194 
Pt176	 0.362870	 0.803047	 0.544194 
Pt177	 0.369893	 0.726823	 0.588388 
Pt178	 0.293346	 0.771017	 0.588388 
Pt179	 0.362870	 0.803047	 0.632583 
Pt180	 0.293346	 0.771017	 0.676777 
Pt181	 0.662033	 0.702494	 0.323223 
Pt182	 0.585486	 0.746688	 0.323223 
Pt183	 0.655009	 0.778718	 0.367417 
Pt184	 0.578463	 0.822912	 0.367417 
Pt185	 0.585486	 0.746688	 0.411612 
Pt186	 0.508939	 0.790882	 0.411612 
Pt187	 0.578463	 0.822912	 0.455806 
Pt188	 0.501916	 0.867106	 0.455806 
Pt189	 0.508939	 0.790882	 0.500000 
Pt190	 0.432393	 0.835076	 0.500000 
Pt191	 0.501916	 0.867106	 0.544194 
Pt192	 0.432393	 0.835076	 0.588388 
Pt193	 0.647986	 0.854941	 0.411612 
Pt194	 0.571439	 0.899135	 0.411612 
Pt195	 0.571439	 0.899135	 0.500000 
Pt196	 0.419056	 0.193257	 0.367417 
Pt197	 0.349533	 0.161228	 0.411612 
Pt198	 0.419056	 0.193257	 0.455806 
Pt199	 0.342509	 0.237452	 0.455806 
Pt200	 0.349533	 0.161228	 0.500000 
Pt201	 0.272986	 0.205422	 0.500000 
Pt202	 0.342509	 0.237452	 0.544194 
Pt203	 0.265963	 0.281646	 0.544194 
Pt204	 0.272986	 0.205422	 0.588388 
Pt205	 0.196439	 0.249616	 0.588388 
Pt206	 0.265963	 0.281646	 0.632583 
Pt207	 0.189416	 0.325840	 0.632583 
Pt208	 0.558102	 0.257316	 0.279029 
Pt209	 0.488579	 0.225287	 0.323223 
Pt210	 0.558102	 0.257316	 0.367417 
Pt211	 0.481556	 0.301511	 0.367417 
Pt212	 0.488579	 0.225287	 0.411612 
Pt213	 0.412033	 0.269481	 0.411612 
Pt214	 0.481556	 0.301511	 0.455806 
Pt215	 0.405009	 0.345705	 0.455806 
Pt216	 0.412033	 0.269481	 0.500000 
Pt217	 0.335486	 0.313675	 0.500000 
Pt218	 0.405009	 0.345705	 0.544194 
Pt219	 0.328463	 0.389899	 0.544194 
Pt220	 0.335486	 0.313675	 0.588388 
Pt221	 0.258939	 0.357869	 0.588388 
Pt222	 0.328463	 0.389899	 0.632583 
Pt223	 0.251916	 0.434093	 0.632583 
Pt224	 0.258939	 0.357869	 0.676777 
Pt225	 0.182393	 0.402064	 0.676777 
Pt226	 0.251916	 0.434093	 0.720971 
Pt227	 0.175370	 0.478287	 0.720971 
Pt228	 0.627626	 0.289346	 0.234835 
Pt229	 0.697149	 0.321375	 0.279029 
Pt230	 0.620602	 0.365570	 0.279029 
Pt231	 0.627626	 0.289346	 0.323223 
Pt232	 0.551079	 0.333540	 0.323223 
Pt233	 0.620602	 0.365570	 0.367417 
Pt234	 0.544056	 0.409764	 0.367417 
Pt235	 0.551079	 0.333540	 0.411612 
Pt236	 0.474533	 0.377734	 0.411612 
Pt237	 0.544056	 0.409764	 0.455806 
Pt238	 0.467509	 0.453958	 0.455806 
Pt239	 0.474533	 0.377734	 0.500000 
Pt240	 0.397986	 0.421928	 0.500000 
Pt241	 0.467509	 0.453958	 0.544194 
Pt242	 0.390963	 0.498152	 0.544194 
Pt243	 0.397986	 0.421928	 0.588388 
Pt244	 0.321439	 0.466123	 0.588388 
Pt245	 0.390963	 0.498152	 0.632583 
Pt246	 0.314416	 0.542346	 0.632583 
Pt247	 0.321439	 0.466123	 0.676777 
Pt248	 0.244893	 0.510317	 0.676777 
Pt249	 0.314416	 0.542346	 0.720971 
Pt250	 0.237870	 0.586541	 0.720971 
Pt251	 0.244893	 0.510317	 0.765165 
Pt252	 0.168346	 0.554511	 0.765165 
Pt253	 0.237870	 0.586541	 0.809359 
Pt254	 0.690126	 0.397599	 0.234835 
Pt255	 0.759649	 0.429629	 0.279029 
Pt256	 0.683102	 0.473823	 0.279029 
Pt257	 0.690126	 0.397599	 0.323223 
Pt258	 0.613579	 0.441793	 0.323223 
Pt259	 0.683102	 0.473823	 0.367417 
Pt260	 0.606556	 0.518017	 0.367417 
Pt261	 0.613579	 0.441793	 0.411612 
Pt262	 0.537033	 0.485987	 0.411612 
Pt263	 0.606556	 0.518017	 0.455806 
Pt264	 0.530009	 0.562211	 0.455806 
Pt265	 0.537033	 0.485987	 0.500000 
Pt266	 0.460486	 0.530182	 0.500000 
Pt267	 0.530009	 0.562211	 0.544194 
Pt268	 0.453463	 0.606405	 0.544194 
Pt269	 0.460486	 0.530182	 0.588388 
Pt270	 0.383939	 0.574376	 0.588388 
Pt271	 0.453463	 0.606405	 0.632583 
Pt272	 0.376916	 0.650600	 0.632583 
Pt273	 0.383939	 0.574376	 0.676777 
Pt274	 0.307393	 0.618570	 0.676777 
Pt275	 0.376916	 0.650600	 0.720971 
Pt276	 0.300370	 0.694794	 0.720971 
Pt277	 0.307393	 0.618570	 0.765165 
Pt278	 0.230846	 0.662764	 0.765165 
Pt279	 0.300370	 0.694794	 0.809359 
Pt280	 0.752626	 0.505852	 0.234835 
Pt281	 0.745602	 0.582076	 0.279029 
Pt282	 0.752626	 0.505852	 0.323223 
Pt283	 0.676079	 0.550046	 0.323223 
Pt284	 0.745602	 0.582076	 0.367417 
Pt285	 0.669056	 0.626270	 0.367417 
Pt286	 0.676079	 0.550046	 0.411612 
Pt287	 0.599533	 0.594241	 0.411612 
Pt288	 0.669056	 0.626270	 0.455806 
Pt289	 0.592509	 0.670464	 0.455806 
Pt290	 0.599533	 0.594241	 0.500000 
Pt291	 0.522986	 0.638435	 0.500000 
Pt292	 0.592509	 0.670464	 0.544194 
Pt293	 0.515963	 0.714659	 0.544194 
Pt294	 0.522986	 0.638435	 0.588388 
Pt295	 0.446439	 0.682629	 0.588388 
Pt296	 0.515963	 0.714659	 0.632583 
Pt297	 0.439416	 0.758853	 0.632583 
Pt298	 0.446439	 0.682629	 0.676777 
Pt299	 0.369893	 0.726823	 0.676777 
Pt300	 0.439416	 0.758853	 0.720971 
Pt301	 0.362870	 0.803047	 0.720971 
Pt302	 0.369893	 0.726823	 0.765165 
Pt303	 0.293346	 0.771017	 0.765165 
Pt304	 0.738579	 0.658300	 0.323223 
Pt305	 0.731556	 0.734523	 0.367417 
Pt306	 0.738579	 0.658300	 0.411612 
Pt307	 0.662033	 0.702494	 0.411612 
Pt308	 0.731556	 0.734523	 0.455806 
Pt309	 0.655009	 0.778718	 0.455806 
Pt310	 0.662033	 0.702494	 0.500000 
Pt311	 0.585486	 0.746688	 0.500000 
Pt312	 0.655009	 0.778718	 0.544194 
Pt313	 0.578463	 0.822912	 0.544194 
Pt314	 0.585486	 0.746688	 0.588388 
Pt315	 0.508939	 0.790882	 0.588388 
Pt316	 0.578463	 0.822912	 0.632583 
Pt317	 0.501916	 0.867106	 0.632583 
Pt318	 0.508939	 0.790882	 0.676777 
Pt319	 0.432393	 0.835076	 0.676777 
Pt320	 0.724533	 0.810747	 0.411612 
Pt321	 0.724533	 0.810747	 0.500000 
Pt322	 0.647986	 0.854941	 0.500000 
Pt323	 0.647986	 0.854941	 0.588388 
Pt324	 0.571439	 0.899135	 0.588388 
Pt325	 0.419056	 0.193257	 0.544194 
Pt326	 0.349533	 0.161228	 0.588388 
Pt327	 0.419056	 0.193257	 0.632583 
Pt328	 0.342509	 0.237452	 0.632583 
Pt329	 0.558102	 0.257316	 0.455806 
Pt330	 0.488579	 0.225287	 0.500000 
Pt331	 0.558102	 0.257316	 0.544194 
Pt332	 0.481556	 0.301511	 0.544194 
Pt333	 0.488579	 0.225287	 0.588388 
Pt334	 0.412033	 0.269481	 0.588388 
Pt335	 0.481556	 0.301511	 0.632583 
Pt336	 0.405009	 0.345705	 0.632583 
Pt337	 0.412033	 0.269481	 0.676777 
Pt338	 0.335486	 0.313675	 0.676777 
Pt339	 0.405009	 0.345705	 0.720971 
Pt340	 0.328463	 0.389899	 0.720971 
Pt341	 0.697149	 0.321375	 0.367417 
Pt342	 0.627626	 0.289346	 0.411612 
Pt343	 0.697149	 0.321375	 0.455806 
Pt344	 0.620602	 0.365570	 0.455806 
Pt345	 0.627626	 0.289346	 0.500000 
Pt346	 0.551079	 0.333540	 0.500000 
Pt347	 0.620602	 0.365570	 0.544194 
Pt348	 0.544056	 0.409764	 0.544194 
Pt349	 0.551079	 0.333540	 0.588388 
Pt350	 0.474533	 0.377734	 0.588388 
Pt351	 0.544056	 0.409764	 0.632583 
Pt352	 0.467509	 0.453958	 0.632583 
Pt353	 0.474533	 0.377734	 0.676777 
Pt354	 0.397986	 0.421928	 0.676777 
Pt355	 0.467509	 0.453958	 0.720971 
Pt356	 0.390963	 0.498152	 0.720971 
Pt357	 0.397986	 0.421928	 0.765165 
Pt358	 0.321439	 0.466123	 0.765165 
Pt359	 0.390963	 0.498152	 0.809359 
Pt360	 0.314416	 0.542346	 0.809359 
Pt361	 0.766672	 0.353405	 0.323223 
Pt362	 0.759649	 0.429629	 0.367417 
Pt363	 0.766672	 0.353405	 0.411612 
Pt364	 0.690126	 0.397599	 0.411612 
Pt365	 0.759649	 0.429629	 0.455806 
Pt366	 0.683102	 0.473823	 0.455806 
Pt367	 0.690126	 0.397599	 0.500000 
Pt368	 0.613579	 0.441793	 0.500000 
Pt369	 0.683102	 0.473823	 0.544194 
Pt370	 0.606556	 0.518017	 0.544194 
Pt371	 0.613579	 0.441793	 0.588388 
Pt372	 0.537033	 0.485987	 0.588388 
Pt373	 0.606556	 0.518017	 0.632583 
Pt374	 0.530009	 0.562211	 0.632583 
Pt375	 0.537033	 0.485987	 0.676777 
Pt376	 0.460486	 0.530182	 0.676777 
Pt377	 0.530009	 0.562211	 0.720971 
Pt378	 0.453463	 0.606405	 0.720971 
Pt379	 0.460486	 0.530182	 0.765165 
Pt380	 0.383939	 0.574376	 0.765165 
Pt381	 0.453463	 0.606405	 0.809359 
Pt382	 0.376916	 0.650600	 0.809359 
Pt383	 0.383939	 0.574376	 0.853553 
Pt384	 0.307393	 0.618570	 0.853553 
Pt385	 0.752626	 0.505852	 0.411612 
Pt386	 0.745602	 0.582076	 0.455806 
Pt387	 0.752626	 0.505852	 0.500000 
Pt388	 0.676079	 0.550046	 0.500000 
Pt389	 0.745602	 0.582076	 0.544194 
Pt390	 0.669056	 0.626270	 0.544194 
Pt391	 0.676079	 0.550046	 0.588388 
Pt392	 0.599533	 0.594241	 0.588388 
Pt393	 0.669056	 0.626270	 0.632583 
Pt394	 0.592509	 0.670464	 0.632583 
Pt395	 0.599533	 0.594241	 0.676777 
Pt396	 0.522986	 0.638435	 0.676777 
Pt397	 0.592509	 0.670464	 0.720971 
Pt398	 0.515963	 0.714659	 0.720971 
Pt399	 0.522986	 0.638435	 0.765165 
Pt400	 0.446439	 0.682629	 0.765165 
Pt401	 0.738579	 0.658300	 0.500000 
Pt402	 0.731556	 0.734523	 0.544194 
Pt403	 0.738579	 0.658300	 0.588388 
Pt404	 0.662033	 0.702494	 0.588388 
Pt405	 0.731556	 0.734523	 0.632583 
Pt406	 0.655009	 0.778718	 0.632583 
Pt407	 0.662033	 0.702494	 0.676777 
Pt408	 0.585486	 0.746688	 0.676777 
Pt409	 0.724533	 0.810747	 0.588388 
Pt410	 0.558102	 0.257316	 0.632583 
Pt411	 0.488579	 0.225287	 0.676777 
Pt412	 0.558102	 0.257316	 0.720971 
Pt413	 0.481556	 0.301511	 0.720971 
Pt414	 0.697149	 0.321375	 0.544194 
Pt415	 0.627626	 0.289346	 0.588388 
Pt416	 0.697149	 0.321375	 0.632583 
Pt417	 0.620602	 0.365570	 0.632583 
Pt418	 0.627626	 0.289346	 0.676777 
Pt419	 0.551079	 0.333540	 0.676777 
Pt420	 0.620602	 0.365570	 0.720971 
Pt421	 0.544056	 0.409764	 0.720971 
Pt422	 0.551079	 0.333540	 0.765165 
Pt423	 0.474533	 0.377734	 0.765165 
Pt424	 0.544056	 0.409764	 0.809359 
Pt425	 0.467509	 0.453958	 0.809359 
Pt426	 0.766672	 0.353405	 0.500000 
Pt427	 0.759649	 0.429629	 0.544194 
Pt428	 0.766672	 0.353405	 0.588388 
Pt429	 0.690126	 0.397599	 0.588388 
Pt430	 0.759649	 0.429629	 0.632583 
Pt431	 0.683102	 0.473823	 0.632583 
Pt432	 0.690126	 0.397599	 0.676777 
Pt433	 0.613579	 0.441793	 0.676777 
Pt434	 0.683102	 0.473823	 0.720971 
Pt435	 0.606556	 0.518017	 0.720971 
Pt436	 0.613579	 0.441793	 0.765165 
Pt437	 0.537033	 0.485987	 0.765165 
Pt438	 0.606556	 0.518017	 0.809359 
Pt439	 0.530009	 0.562211	 0.809359 
Pt440	 0.537033	 0.485987	 0.853553 
Pt441	 0.460486	 0.530182	 0.853553 
Pt442	 0.752626	 0.505852	 0.588388 
Pt443	 0.745602	 0.582076	 0.632583 
Pt444	 0.752626	 0.505852	 0.676777 
Pt445	 0.676079	 0.550046	 0.676777 
Pt446	 0.745602	 0.582076	 0.720971 
Pt447	 0.669056	 0.626270	 0.720971 
Pt448	 0.676079	 0.550046	 0.765165 
Pt449	 0.599533	 0.594241	 0.765165 
Pt450	 0.738579	 0.658300	 0.676777 
Pt451	 0.697149	 0.321375	 0.720971 
Pt452	 0.627626	 0.289346	 0.765165 
Pt453	 0.620602	 0.365570	 0.809359 
Pt454	 0.766672	 0.353405	 0.676777 
Pt455	 0.759649	 0.429629	 0.720971 
Pt456	 0.690126	 0.397599	 0.765165 
Pt457	 0.683102	 0.473823	 0.809359 
Pt458	 0.613579	 0.441793	 0.853553 
Pt459	 0.752626	 0.505852	 0.765165 
#                 ---end-of-data-block---
