data_C:\Users\admin\Documents\atomsegmentation_bupt_fullsuite_3\misc\10999.cif
_cell_length_a               31.652800
_cell_length_b               31.652800
_cell_length_c               5.449400
_cell_angle_alpha          90.000000
_cell_angle_beta           90.000000
_cell_angle_gamma          90.000000
_symmetry_cell_setting          Triclinic
_symmetry_space_group_name_H-M 'P 1' 
loop_
_atom_site_label
_atom_site_fract_x
_atom_site_fract_y
_atom_site_fract_z
Sc1	 0.646854	 0.038010	 0.000000 
Sc2	 0.568518	 0.083237	 0.500000 
Sc3	 0.709354	 0.146263	 0.000000 
Sc4	 0.631018	 0.191490	 0.500000 
Dy5	 0.746930	 0.052399	 0.017200 
Dy6	 0.750114	 0.194899	 0.517200 
Dy7	 0.671778	 0.240126	 0.982800 
Dy8	 0.668594	 0.097627	 0.482800 
Sc9	 0.490182	 0.128465	 0.000000 
Sc10	 0.411845	 0.173692	 0.500000 
Sc11	 0.552682	 0.236718	 0.000000 
Sc12	 0.474345	 0.281945	 0.500000 
Dy13	 0.590258	 0.142854	 0.017200 
Dy14	 0.593442	 0.285354	 0.517200 
Dy15	 0.515106	 0.330581	 0.982800 
Dy16	 0.511922	 0.188082	 0.482800 
Sc17	 0.333509	 0.218919	 0.000000 
Sc18	 0.255173	 0.264147	 0.500000 
Sc19	 0.396009	 0.327173	 0.000000 
Sc20	 0.317673	 0.372400	 0.500000 
Dy21	 0.433585	 0.233309	 0.017200 
Dy22	 0.436769	 0.375809	 0.517200 
Dy23	 0.358433	 0.421036	 0.982800 
Dy24	 0.355249	 0.278537	 0.482800 
Sc25	 0.176837	 0.309374	 0.000000 
Sc26	 0.098501	 0.354602	 0.500000 
Sc27	 0.239337	 0.417627	 0.000000 
Sc28	 0.161001	 0.462855	 0.500000 
Dy29	 0.276913	 0.323764	 0.017200 
Dy30	 0.280097	 0.466263	 0.517200 
Dy31	 0.201761	 0.511491	 0.982800 
Dy32	 0.198577	 0.368991	 0.482800 
Sc33	 0.020164	 0.399829	 0.000000 
Sc34	 0.082664	 0.508082	 0.000000 
Sc35	 0.787690	 0.101035	 0.500000 
Dy36	 0.120241	 0.414219	 0.017200 
Dy37	 0.123424	 0.556718	 0.517200 
Dy38	 0.045088	 0.601946	 0.982800 
Dy39	 0.041904	 0.459446	 0.482800 
Sc40	 0.771854	 0.254516	 0.000000 
Sc41	 0.693518	 0.299743	 0.500000 
Sc42	 0.834354	 0.362769	 0.000000 
Sc43	 0.756018	 0.407997	 0.500000 
Dy44	 0.871930	 0.268906	 0.017200 
Dy45	 0.875114	 0.411405	 0.517200 
Dy46	 0.796778	 0.456633	 0.982800 
Dy47	 0.793594	 0.314133	 0.482800 
Sc48	 0.615182	 0.344971	 0.000000 
Sc49	 0.536845	 0.390198	 0.500000 
Sc50	 0.677682	 0.453224	 0.000000 
Sc51	 0.599345	 0.498451	 0.500000 
Dy52	 0.715258	 0.359361	 0.017200 
Dy53	 0.718442	 0.501860	 0.517200 
Dy54	 0.640106	 0.547087	 0.982800 
Dy55	 0.636922	 0.404588	 0.482800 
Sc56	 0.458509	 0.435426	 0.000000 
Sc57	 0.380173	 0.480653	 0.500000 
Sc58	 0.521009	 0.543679	 0.000000 
Sc59	 0.442673	 0.588906	 0.500000 
Dy60	 0.558585	 0.449815	 0.017200 
Dy61	 0.561769	 0.592315	 0.517200 
Dy62	 0.483433	 0.637542	 0.982800 
Dy63	 0.480249	 0.495043	 0.482800 
Sc64	 0.301837	 0.525881	 0.000000 
Sc65	 0.223501	 0.571108	 0.500000 
Sc66	 0.364337	 0.634134	 0.000000 
Sc67	 0.286001	 0.679361	 0.500000 
Dy68	 0.401913	 0.540270	 0.017200 
Dy69	 0.405097	 0.682770	 0.517200 
Dy70	 0.326761	 0.727997	 0.982800 
Dy71	 0.323577	 0.585498	 0.482800 
Sc72	 0.145164	 0.616335	 0.000000 
Sc73	 0.850190	 0.209289	 0.500000 
Sc74	 0.207664	 0.724589	 0.000000 
Sc75	 0.912690	 0.317542	 0.500000 
Dy76	 0.245241	 0.630725	 0.017200 
Dy77	 0.248424	 0.773225	 0.517200 
Dy78	 0.170088	 0.818452	 0.982800 
Dy79	 0.166904	 0.675953	 0.482800 
Sc80	 0.896854	 0.471022	 0.000000 
Sc81	 0.818518	 0.516250	 0.500000 
Sc82	 0.959354	 0.579276	 0.000000 
Sc83	 0.881018	 0.624503	 0.500000 
Dy84	 0.996930	 0.485412	 0.017200 
Dy85	 0.921778	 0.673139	 0.982800 
Dy86	 0.918594	 0.530640	 0.482800 
Sc87	 0.740182	 0.561477	 0.000000 
Sc88	 0.661845	 0.606705	 0.500000 
Sc89	 0.802682	 0.669730	 0.000000 
Sc90	 0.724345	 0.714958	 0.500000 
Dy91	 0.840258	 0.575867	 0.017200 
Dy92	 0.843442	 0.718366	 0.517200 
Dy93	 0.765106	 0.763594	 0.982800 
Dy94	 0.761922	 0.621094	 0.482800 
Sc95	 0.583509	 0.651932	 0.000000 
Sc96	 0.505173	 0.697160	 0.500000 
Sc97	 0.646009	 0.760185	 0.000000 
Sc98	 0.567673	 0.805413	 0.500000 
Dy99	 0.683585	 0.666322	 0.017200 
Dy100	 0.686769	 0.808821	 0.517200 
Dy101	 0.608433	 0.854049	 0.982800 
Dy102	 0.605249	 0.711549	 0.482800 
Sc103	 0.426837	 0.742387	 0.000000 
Sc104	 0.348501	 0.787614	 0.500000 
Sc105	 0.489337	 0.850640	 0.000000 
Sc106	 0.411001	 0.895868	 0.500000 
Dy107	 0.526913	 0.756777	 0.017200 
Dy108	 0.530097	 0.899276	 0.517200 
Dy109	 0.451761	 0.944504	 0.982800 
Dy110	 0.448577	 0.802004	 0.482800 
Sc111	 0.270164	 0.832842	 0.000000 
Sc112	 0.975190	 0.425795	 0.500000 
Sc113	 0.332664	 0.941095	 0.000000 
Dy114	 0.370241	 0.847232	 0.017200 
Dy115	 0.373424	 0.989731	 0.517200 
Dy116	 0.291904	 0.892459	 0.482800 
Sc117	 0.943518	 0.732756	 0.500000 
Dy118	 0.546778	 0.023620	 0.982800 
Sc119	 0.865182	 0.777984	 0.000000 
Sc120	 0.786845	 0.823211	 0.500000 
Sc121	 0.427682	 0.020211	 0.000000 
Sc122	 0.349345	 0.065439	 0.500000 
Dy123	 0.965258	 0.792373	 0.017200 
Dy124	 0.468442	 0.068847	 0.517200 
Dy125	 0.390106	 0.114075	 0.982800 
Dy126	 0.886922	 0.837601	 0.482800 
Sc127	 0.708509	 0.868438	 0.000000 
Sc128	 0.630173	 0.913666	 0.500000 
Sc129	 0.271009	 0.110666	 0.000000 
Sc130	 0.192673	 0.155894	 0.500000 
Dy131	 0.808585	 0.882828	 0.017200 
Dy132	 0.311769	 0.159302	 0.517200 
Dy133	 0.233433	 0.204530	 0.982800 
Dy134	 0.730249	 0.928056	 0.482800 
Sc135	 0.551837	 0.958893	 0.000000 
Sc136	 0.114337	 0.201121	 0.000000 
Sc137	 0.036001	 0.246349	 0.500000 
Dy138	 0.651913	 0.973283	 0.017200 
Dy139	 0.155097	 0.249757	 0.517200 
Dy140	 0.076761	 0.294984	 0.982800 
#                 ---end-of-data-block---
