data_Graphite [001] nx 12 ny 7 nz 1
_cell_length_a               29.778000
_cell_length_b               29.778000
_cell_length_c               3.348000
_cell_angle_alpha          90.000000
_cell_angle_beta           90.000000
_cell_angle_gamma          90.000000
_symmetry_cell_setting          Triclinic
_symmetry_space_group_name_H-M 'P 1' 
loop_
_atom_site_label
_atom_site_fract_x
_atom_site_fract_y
_atom_site_fract_z
C1	 0.876120	 0.084547	 0.000000 
C2	 0.780882	 0.084547	 0.000000 
C3	 0.852310	 0.125786	 0.000000 
C4	 0.804691	 0.125786	 0.000000 
C5	 0.733263	 0.084547	 0.000000 
C6	 0.638025	 0.084547	 0.000000 
C7	 0.709453	 0.125786	 0.000000 
C8	 0.661834	 0.125786	 0.000000 
C9	 0.590406	 0.084547	 0.000000 
C10	 0.495168	 0.084547	 0.000000 
C11	 0.566596	 0.125786	 0.000000 
C12	 0.518977	 0.125786	 0.000000 
C13	 0.447549	 0.084547	 0.000000 
C14	 0.352310	 0.084547	 0.000000 
C15	 0.423739	 0.125786	 0.000000 
C16	 0.376120	 0.125786	 0.000000 
C17	 0.304691	 0.084547	 0.000000 
C18	 0.209453	 0.084547	 0.000000 
C19	 0.280882	 0.125786	 0.000000 
C20	 0.233263	 0.125786	 0.000000 
C21	 0.161834	 0.084547	 0.000000 
C22	 0.066596	 0.084547	 0.000000 
C23	 0.138025	 0.125786	 0.000000 
C24	 0.090406	 0.125786	 0.000000 
C25	 0.018977	 0.084547	 0.000000 
C26	 0.923739	 0.084547	 0.000000 
C27	 0.995168	 0.125786	 0.000000 
C28	 0.947549	 0.125786	 0.000000 
C29	 0.876120	 0.167024	 0.000000 
C30	 0.780882	 0.167024	 0.000000 
C31	 0.852310	 0.208263	 0.000000 
C32	 0.804691	 0.208263	 0.000000 
C33	 0.733263	 0.167024	 0.000000 
C34	 0.638025	 0.167024	 0.000000 
C35	 0.709453	 0.208263	 0.000000 
C36	 0.661834	 0.208263	 0.000000 
C37	 0.590406	 0.167024	 0.000000 
C38	 0.495168	 0.167024	 0.000000 
C39	 0.566596	 0.208263	 0.000000 
C40	 0.518977	 0.208263	 0.000000 
C41	 0.447549	 0.167024	 0.000000 
C42	 0.352310	 0.167024	 0.000000 
C43	 0.423739	 0.208263	 0.000000 
C44	 0.376120	 0.208263	 0.000000 
C45	 0.304691	 0.167024	 0.000000 
C46	 0.209453	 0.167024	 0.000000 
C47	 0.280882	 0.208263	 0.000000 
C48	 0.233263	 0.208263	 0.000000 
C49	 0.161834	 0.167024	 0.000000 
C50	 0.066596	 0.167024	 0.000000 
C51	 0.138025	 0.208263	 0.000000 
C52	 0.090406	 0.208263	 0.000000 
C53	 0.018977	 0.167024	 0.000000 
C54	 0.923739	 0.167024	 0.000000 
C55	 0.995168	 0.208263	 0.000000 
C56	 0.947549	 0.208263	 0.000000 
C57	 0.876120	 0.249501	 0.000000 
C58	 0.780882	 0.249501	 0.000000 
C59	 0.852310	 0.290740	 0.000000 
C60	 0.804691	 0.290740	 0.000000 
C61	 0.733263	 0.249501	 0.000000 
C62	 0.638025	 0.249501	 0.000000 
C63	 0.709453	 0.290740	 0.000000 
C64	 0.661834	 0.290740	 0.000000 
C65	 0.590406	 0.249501	 0.000000 
C66	 0.495168	 0.249501	 0.000000 
C67	 0.566596	 0.290740	 0.000000 
C68	 0.518977	 0.290740	 0.000000 
C69	 0.447549	 0.249501	 0.000000 
C70	 0.352310	 0.249501	 0.000000 
C71	 0.423739	 0.290740	 0.000000 
C72	 0.376120	 0.290740	 0.000000 
C73	 0.304691	 0.249501	 0.000000 
C74	 0.209453	 0.249501	 0.000000 
C75	 0.280882	 0.290740	 0.000000 
C76	 0.233263	 0.290740	 0.000000 
C77	 0.161834	 0.249501	 0.000000 
C78	 0.066596	 0.249501	 0.000000 
C79	 0.138025	 0.290740	 0.000000 
C80	 0.090406	 0.290740	 0.000000 
C81	 0.018977	 0.249501	 0.000000 
C82	 0.923739	 0.249501	 0.000000 
C83	 0.995168	 0.290740	 0.000000 
C84	 0.947549	 0.290740	 0.000000 
C85	 0.876120	 0.331978	 0.000000 
C86	 0.780882	 0.331978	 0.000000 
C87	 0.852310	 0.373217	 0.000000 
C88	 0.804691	 0.373217	 0.000000 
C89	 0.733263	 0.331978	 0.000000 
C90	 0.638025	 0.331978	 0.000000 
C91	 0.709453	 0.373217	 0.000000 
C92	 0.661834	 0.373217	 0.000000 
C93	 0.590406	 0.331978	 0.000000 
C94	 0.495168	 0.331978	 0.000000 
C95	 0.566596	 0.373217	 0.000000 
C96	 0.518977	 0.373217	 0.000000 
C97	 0.447549	 0.331978	 0.000000 
C98	 0.352310	 0.331978	 0.000000 
C99	 0.423739	 0.373217	 0.000000 
C100	 0.376120	 0.373217	 0.000000 
C101	 0.304691	 0.331978	 0.000000 
C102	 0.209453	 0.331978	 0.000000 
C103	 0.280882	 0.373217	 0.000000 
C104	 0.233263	 0.373217	 0.000000 
C105	 0.161834	 0.331978	 0.000000 
C106	 0.066596	 0.331978	 0.000000 
C107	 0.138025	 0.373217	 0.000000 
C108	 0.090406	 0.373217	 0.000000 
C109	 0.018977	 0.331978	 0.000000 
C110	 0.923739	 0.331978	 0.000000 
C111	 0.995168	 0.373217	 0.000000 
C112	 0.947549	 0.373217	 0.000000 
C113	 0.876120	 0.414455	 0.000000 
C114	 0.780882	 0.414455	 0.000000 
C115	 0.852310	 0.455694	 0.000000 
C116	 0.804691	 0.455694	 0.000000 
C117	 0.733263	 0.414455	 0.000000 
C118	 0.638025	 0.414455	 0.000000 
C119	 0.709453	 0.455694	 0.000000 
C120	 0.661834	 0.455694	 0.000000 
C121	 0.590406	 0.414455	 0.000000 
C122	 0.495168	 0.414455	 0.000000 
C123	 0.566596	 0.455694	 0.000000 
C124	 0.518977	 0.455694	 0.000000 
C125	 0.447549	 0.414455	 0.000000 
C126	 0.352310	 0.414455	 0.000000 
C127	 0.423739	 0.455694	 0.000000 
C128	 0.376120	 0.455694	 0.000000 
C129	 0.304691	 0.414455	 0.000000 
C130	 0.209453	 0.414455	 0.000000 
C131	 0.280882	 0.455694	 0.000000 
C132	 0.233263	 0.455694	 0.000000 
C133	 0.161834	 0.414455	 0.000000 
C134	 0.066596	 0.414455	 0.000000 
C135	 0.138025	 0.455694	 0.000000 
C136	 0.090406	 0.455694	 0.000000 
C137	 0.018977	 0.414455	 0.000000 
C138	 0.923739	 0.414455	 0.000000 
C139	 0.995168	 0.455694	 0.000000 
C140	 0.947549	 0.455694	 0.000000 
C141	 0.876120	 0.496932	 0.000000 
C142	 0.780882	 0.496932	 0.000000 
C143	 0.852310	 0.538171	 0.000000 
C144	 0.804691	 0.538171	 0.000000 
C145	 0.733263	 0.496932	 0.000000 
C146	 0.638025	 0.496932	 0.000000 
C147	 0.709453	 0.538171	 0.000000 
C148	 0.661834	 0.538171	 0.000000 
C149	 0.590406	 0.496932	 0.000000 
C150	 0.495168	 0.496932	 0.000000 
C151	 0.566596	 0.538171	 0.000000 
C152	 0.518977	 0.538171	 0.000000 
C153	 0.447549	 0.496932	 0.000000 
C154	 0.352310	 0.496932	 0.000000 
C155	 0.423739	 0.538171	 0.000000 
C156	 0.376120	 0.538171	 0.000000 
C157	 0.304691	 0.496932	 0.000000 
C158	 0.209453	 0.496932	 0.000000 
C159	 0.280882	 0.538171	 0.000000 
C160	 0.233263	 0.538171	 0.000000 
C161	 0.161834	 0.496932	 0.000000 
C162	 0.066596	 0.496932	 0.000000 
C163	 0.138025	 0.538171	 0.000000 
C164	 0.090406	 0.538171	 0.000000 
C165	 0.018977	 0.496932	 0.000000 
C166	 0.923739	 0.496932	 0.000000 
C167	 0.995168	 0.538171	 0.000000 
C168	 0.947549	 0.538171	 0.000000 
C169	 0.876120	 0.579409	 0.000000 
C170	 0.780882	 0.579409	 0.000000 
C171	 0.852310	 0.620648	 0.000000 
C172	 0.804691	 0.620648	 0.000000 
C173	 0.733263	 0.579409	 0.000000 
C174	 0.638025	 0.579409	 0.000000 
C175	 0.709453	 0.620648	 0.000000 
C176	 0.661834	 0.620648	 0.000000 
C177	 0.590406	 0.579409	 0.000000 
C178	 0.495168	 0.579409	 0.000000 
C179	 0.566596	 0.620648	 0.000000 
C180	 0.518977	 0.620648	 0.000000 
C181	 0.447549	 0.579409	 0.000000 
C182	 0.352310	 0.579409	 0.000000 
C183	 0.423739	 0.620648	 0.000000 
C184	 0.376120	 0.620648	 0.000000 
C185	 0.304691	 0.579409	 0.000000 
C186	 0.209453	 0.579409	 0.000000 
C187	 0.280882	 0.620648	 0.000000 
C188	 0.233263	 0.620648	 0.000000 
C189	 0.161834	 0.579409	 0.000000 
C190	 0.066596	 0.579409	 0.000000 
C191	 0.138025	 0.620648	 0.000000 
C192	 0.090406	 0.620648	 0.000000 
C193	 0.018977	 0.579409	 0.000000 
C194	 0.923739	 0.579409	 0.000000 
C195	 0.995168	 0.620648	 0.000000 
C196	 0.947549	 0.620648	 0.000000 
C197	 0.876120	 0.661886	 0.000000 
C198	 0.780882	 0.661886	 0.000000 
C199	 0.852310	 0.703125	 0.000000 
C200	 0.804691	 0.703125	 0.000000 
C201	 0.733263	 0.661886	 0.000000 
C202	 0.638025	 0.661886	 0.000000 
C203	 0.709453	 0.703125	 0.000000 
C204	 0.661834	 0.703125	 0.000000 
C205	 0.590406	 0.661886	 0.000000 
C206	 0.495168	 0.661886	 0.000000 
C207	 0.566596	 0.703125	 0.000000 
C208	 0.518977	 0.703125	 0.000000 
C209	 0.447549	 0.661886	 0.000000 
C210	 0.352310	 0.661886	 0.000000 
C211	 0.423739	 0.703125	 0.000000 
C212	 0.376120	 0.703125	 0.000000 
C213	 0.304691	 0.661886	 0.000000 
C214	 0.209453	 0.661886	 0.000000 
C215	 0.280882	 0.703125	 0.000000 
C216	 0.233263	 0.703125	 0.000000 
C217	 0.161834	 0.661886	 0.000000 
C218	 0.066596	 0.661886	 0.000000 
C219	 0.138025	 0.703125	 0.000000 
C220	 0.090406	 0.703125	 0.000000 
C221	 0.018977	 0.661886	 0.000000 
C222	 0.923739	 0.661886	 0.000000 
C223	 0.995168	 0.703125	 0.000000 
C224	 0.947549	 0.703125	 0.000000 
C225	 0.876120	 0.744363	 0.000000 
C226	 0.780882	 0.744363	 0.000000 
C227	 0.852310	 0.785602	 0.000000 
C228	 0.804691	 0.785602	 0.000000 
C229	 0.733263	 0.744363	 0.000000 
C230	 0.638025	 0.744363	 0.000000 
C231	 0.709453	 0.785602	 0.000000 
C232	 0.661834	 0.785602	 0.000000 
C233	 0.590406	 0.744363	 0.000000 
C234	 0.495168	 0.744363	 0.000000 
C235	 0.566596	 0.785602	 0.000000 
C236	 0.518977	 0.785602	 0.000000 
C237	 0.447549	 0.744363	 0.000000 
C238	 0.352310	 0.744363	 0.000000 
C239	 0.423739	 0.785602	 0.000000 
C240	 0.376120	 0.785602	 0.000000 
C241	 0.304691	 0.744363	 0.000000 
C242	 0.209453	 0.744363	 0.000000 
C243	 0.280882	 0.785602	 0.000000 
C244	 0.233263	 0.785602	 0.000000 
C245	 0.161834	 0.744363	 0.000000 
C246	 0.066596	 0.744363	 0.000000 
C247	 0.138025	 0.785602	 0.000000 
C248	 0.090406	 0.785602	 0.000000 
C249	 0.018977	 0.744363	 0.000000 
C250	 0.923739	 0.744363	 0.000000 
C251	 0.995168	 0.785602	 0.000000 
C252	 0.947549	 0.785602	 0.000000 
C253	 0.876120	 0.826840	 0.000000 
C254	 0.780882	 0.826840	 0.000000 
C255	 0.852310	 0.868079	 0.000000 
C256	 0.804691	 0.868079	 0.000000 
C257	 0.733263	 0.826840	 0.000000 
C258	 0.638025	 0.826840	 0.000000 
C259	 0.709453	 0.868079	 0.000000 
C260	 0.661834	 0.868079	 0.000000 
C261	 0.590406	 0.826840	 0.000000 
C262	 0.495168	 0.826840	 0.000000 
C263	 0.566596	 0.868079	 0.000000 
C264	 0.518977	 0.868079	 0.000000 
C265	 0.447549	 0.826840	 0.000000 
C266	 0.352310	 0.826840	 0.000000 
C267	 0.423739	 0.868079	 0.000000 
C268	 0.376120	 0.868079	 0.000000 
C269	 0.304691	 0.826840	 0.000000 
C270	 0.209453	 0.826840	 0.000000 
C271	 0.280882	 0.868079	 0.000000 
C272	 0.233263	 0.868079	 0.000000 
C273	 0.161834	 0.826840	 0.000000 
C274	 0.066596	 0.826840	 0.000000 
C275	 0.138025	 0.868079	 0.000000 
C276	 0.090406	 0.868079	 0.000000 
C277	 0.018977	 0.826840	 0.000000 
C278	 0.923739	 0.826840	 0.000000 
C279	 0.995168	 0.868079	 0.000000 
C280	 0.947549	 0.868079	 0.000000 
C281	 0.876120	 0.909317	 0.000000 
C282	 0.780882	 0.909317	 0.000000 
C283	 0.852310	 0.950556	 0.000000 
C284	 0.804691	 0.950556	 0.000000 
C285	 0.733263	 0.909317	 0.000000 
C286	 0.638025	 0.909317	 0.000000 
C287	 0.709453	 0.950556	 0.000000 
C288	 0.661834	 0.950556	 0.000000 
C289	 0.590406	 0.909317	 0.000000 
C290	 0.495168	 0.909317	 0.000000 
C291	 0.566596	 0.950556	 0.000000 
C292	 0.518977	 0.950556	 0.000000 
C293	 0.447549	 0.909317	 0.000000 
C294	 0.352310	 0.909317	 0.000000 
C295	 0.423739	 0.950556	 0.000000 
C296	 0.376120	 0.950556	 0.000000 
C297	 0.304691	 0.909317	 0.000000 
C298	 0.209453	 0.909317	 0.000000 
C299	 0.280882	 0.950556	 0.000000 
C300	 0.233263	 0.950556	 0.000000 
C301	 0.161834	 0.909317	 0.000000 
C302	 0.066596	 0.909317	 0.000000 
C303	 0.138025	 0.950556	 0.000000 
C304	 0.090406	 0.950556	 0.000000 
C305	 0.018977	 0.909317	 0.000000 
C306	 0.923739	 0.909317	 0.000000 
C307	 0.995168	 0.950556	 0.000000 
C308	 0.947549	 0.950556	 0.000000 
C309	 0.876120	 0.991794	 0.000000 
C310	 0.780882	 0.991794	 0.000000 
C311	 0.852310	 0.043309	 0.000000 
C312	 0.804691	 0.043309	 0.000000 
C313	 0.733263	 0.991794	 0.000000 
C314	 0.638025	 0.991794	 0.000000 
C315	 0.709453	 0.043309	 0.000000 
C316	 0.661834	 0.043309	 0.000000 
C317	 0.590406	 0.991794	 0.000000 
C318	 0.495168	 0.991794	 0.000000 
C319	 0.566596	 0.043309	 0.000000 
C320	 0.518977	 0.043309	 0.000000 
C321	 0.447549	 0.991794	 0.000000 
C322	 0.352310	 0.991794	 0.000000 
C323	 0.423739	 0.043309	 0.000000 
C324	 0.376120	 0.043309	 0.000000 
C325	 0.304691	 0.991794	 0.000000 
C326	 0.209453	 0.991794	 0.000000 
C327	 0.280882	 0.043309	 0.000000 
C328	 0.233263	 0.043309	 0.000000 
C329	 0.161834	 0.991794	 0.000000 
C330	 0.066596	 0.991794	 0.000000 
C331	 0.138025	 0.043309	 0.000000 
C332	 0.090406	 0.043309	 0.000000 
C333	 0.018977	 0.991794	 0.000000 
C334	 0.923739	 0.991794	 0.000000 
C335	 0.995168	 0.043309	 0.000000 
C336	 0.947549	 0.043309	 0.000000 
#                 ---end-of-data-block---
