data_Single Layer of MoS2nx 10 ny 6 nz 1
_cell_length_a               32.423991
_cell_length_b               32.423991
_cell_length_c               3.080000
_cell_angle_alpha          90.000000
_cell_angle_beta           90.000000
_cell_angle_gamma          90.000000
_symmetry_cell_setting          Triclinic
_symmetry_space_group_name_H-M 'P 1' 
loop_
_atom_site_label
_atom_site_fract_x
_atom_site_fract_y
_atom_site_fract_z
S1	 0.909965	 0.041921	 1.000000 
S2	 0.909965	 0.041921	 0.000000 
Mo3	 0.798854	 0.041921	 0.500000 
Mo4	 0.882188	 0.090033	 0.500000 
S5	 0.826632	 0.090033	 1.000000 
S6	 0.826632	 0.090033	 0.000000 
S7	 0.743299	 0.041921	 1.000000 
S8	 0.743299	 0.041921	 0.000000 
Mo9	 0.632188	 0.041921	 0.500000 
Mo10	 0.715521	 0.090033	 0.500000 
S11	 0.659965	 0.090033	 1.000000 
S12	 0.659965	 0.090033	 0.000000 
S13	 0.576632	 0.041921	 1.000000 
S14	 0.576632	 0.041921	 0.000000 
Mo15	 0.465521	 0.041921	 0.500000 
Mo16	 0.548854	 0.090033	 0.500000 
S17	 0.493299	 0.090033	 1.000000 
S18	 0.493299	 0.090033	 0.000000 
S19	 0.409965	 0.041921	 1.000000 
S20	 0.409965	 0.041921	 0.000000 
Mo21	 0.298854	 0.041921	 0.500000 
Mo22	 0.382188	 0.090033	 0.500000 
S23	 0.326632	 0.090033	 1.000000 
S24	 0.326632	 0.090033	 0.000000 
S25	 0.243299	 0.041921	 1.000000 
S26	 0.243299	 0.041921	 0.000000 
Mo27	 0.132188	 0.041921	 0.500000 
Mo28	 0.215521	 0.090033	 0.500000 
S29	 0.159965	 0.090033	 1.000000 
S30	 0.159965	 0.090033	 0.000000 
S31	 0.076632	 0.041921	 1.000000 
S32	 0.076632	 0.041921	 0.000000 
Mo33	 0.965521	 0.041921	 0.500000 
Mo34	 0.048854	 0.090033	 0.500000 
S35	 0.993299	 0.090033	 1.000000 
S36	 0.993299	 0.090033	 0.000000 
S37	 0.909965	 0.138146	 1.000000 
S38	 0.909965	 0.138146	 0.000000 
Mo39	 0.798854	 0.138146	 0.500000 
Mo40	 0.882188	 0.186258	 0.500000 
S41	 0.826632	 0.186258	 1.000000 
S42	 0.826632	 0.186258	 0.000000 
S43	 0.743299	 0.138146	 1.000000 
S44	 0.743299	 0.138146	 0.000000 
Mo45	 0.632188	 0.138146	 0.500000 
Mo46	 0.715521	 0.186258	 0.500000 
S47	 0.659965	 0.186258	 1.000000 
S48	 0.659965	 0.186258	 0.000000 
S49	 0.576632	 0.138146	 1.000000 
S50	 0.576632	 0.138146	 0.000000 
Mo51	 0.465521	 0.138146	 0.500000 
Mo52	 0.548854	 0.186258	 0.500000 
S53	 0.493299	 0.186258	 1.000000 
S54	 0.493299	 0.186258	 0.000000 
S55	 0.409965	 0.138146	 1.000000 
S56	 0.409965	 0.138146	 0.000000 
Mo57	 0.298854	 0.138146	 0.500000 
Mo58	 0.382188	 0.186258	 0.500000 
S59	 0.326632	 0.186258	 1.000000 
S60	 0.326632	 0.186258	 0.000000 
S61	 0.243299	 0.138146	 1.000000 
S62	 0.243299	 0.138146	 0.000000 
Mo63	 0.132188	 0.138146	 0.500000 
Mo64	 0.215521	 0.186258	 0.500000 
S65	 0.159965	 0.186258	 1.000000 
S66	 0.159965	 0.186258	 0.000000 
S67	 0.076632	 0.138146	 1.000000 
S68	 0.076632	 0.138146	 0.000000 
Mo69	 0.965521	 0.138146	 0.500000 
Mo70	 0.048854	 0.186258	 0.500000 
S71	 0.993299	 0.186258	 1.000000 
S72	 0.993299	 0.186258	 0.000000 
S73	 0.909965	 0.234371	 1.000000 
S74	 0.909965	 0.234371	 0.000000 
Mo75	 0.798854	 0.234371	 0.500000 
Mo76	 0.882188	 0.282484	 0.500000 
S77	 0.826632	 0.282484	 1.000000 
S78	 0.826632	 0.282484	 0.000000 
S79	 0.743299	 0.234371	 1.000000 
S80	 0.743299	 0.234371	 0.000000 
Mo81	 0.632188	 0.234371	 0.500000 
Mo82	 0.715521	 0.282484	 0.500000 
S83	 0.659965	 0.282484	 1.000000 
S84	 0.659965	 0.282484	 0.000000 
S85	 0.576632	 0.234371	 1.000000 
S86	 0.576632	 0.234371	 0.000000 
Mo87	 0.465521	 0.234371	 0.500000 
Mo88	 0.548854	 0.282484	 0.500000 
S89	 0.493299	 0.282484	 1.000000 
S90	 0.493299	 0.282484	 0.000000 
S91	 0.409965	 0.234371	 1.000000 
S92	 0.409965	 0.234371	 0.000000 
Mo93	 0.298854	 0.234371	 0.500000 
Mo94	 0.382188	 0.282484	 0.500000 
S95	 0.326632	 0.282484	 1.000000 
S96	 0.326632	 0.282484	 0.000000 
S97	 0.243299	 0.234371	 1.000000 
S98	 0.243299	 0.234371	 0.000000 
Mo99	 0.132188	 0.234371	 0.500000 
Mo100	 0.215521	 0.282484	 0.500000 
S101	 0.159965	 0.282484	 1.000000 
S102	 0.159965	 0.282484	 0.000000 
S103	 0.076632	 0.234371	 1.000000 
S104	 0.076632	 0.234371	 0.000000 
Mo105	 0.965521	 0.234371	 0.500000 
Mo106	 0.048854	 0.282484	 0.500000 
S107	 0.993299	 0.282484	 1.000000 
S108	 0.993299	 0.282484	 0.000000 
S109	 0.909965	 0.330596	 1.000000 
S110	 0.909965	 0.330596	 0.000000 
Mo111	 0.798854	 0.330596	 0.500000 
Mo112	 0.882188	 0.378709	 0.500000 
S113	 0.826632	 0.378709	 1.000000 
S114	 0.826632	 0.378709	 0.000000 
S115	 0.743299	 0.330596	 1.000000 
S116	 0.743299	 0.330596	 0.000000 
Mo117	 0.632188	 0.330596	 0.500000 
Mo118	 0.715521	 0.378709	 0.500000 
S119	 0.659965	 0.378709	 1.000000 
S120	 0.659965	 0.378709	 0.000000 
S121	 0.576632	 0.330596	 1.000000 
S122	 0.576632	 0.330596	 0.000000 
Mo123	 0.465521	 0.330596	 0.500000 
Mo124	 0.548854	 0.378709	 0.500000 
S125	 0.493299	 0.378709	 1.000000 
S126	 0.493299	 0.378709	 0.000000 
S127	 0.409965	 0.330596	 1.000000 
S128	 0.409965	 0.330596	 0.000000 
Mo129	 0.298854	 0.330596	 0.500000 
Mo130	 0.382188	 0.378709	 0.500000 
S131	 0.326632	 0.378709	 1.000000 
S132	 0.326632	 0.378709	 0.000000 
S133	 0.243299	 0.330596	 1.000000 
S134	 0.243299	 0.330596	 0.000000 
Mo135	 0.132188	 0.330596	 0.500000 
Mo136	 0.215521	 0.378709	 0.500000 
S137	 0.159965	 0.378709	 1.000000 
S138	 0.159965	 0.378709	 0.000000 
S139	 0.076632	 0.330596	 1.000000 
S140	 0.076632	 0.330596	 0.000000 
Mo141	 0.965521	 0.330596	 0.500000 
Mo142	 0.048854	 0.378709	 0.500000 
S143	 0.993299	 0.378709	 1.000000 
S144	 0.993299	 0.378709	 0.000000 
S145	 0.909965	 0.426821	 1.000000 
S146	 0.909965	 0.426821	 0.000000 
Mo147	 0.798854	 0.426821	 0.500000 
Mo148	 0.882188	 0.474934	 0.500000 
S149	 0.826632	 0.474934	 1.000000 
S150	 0.826632	 0.474934	 0.000000 
S151	 0.743299	 0.426821	 1.000000 
S152	 0.743299	 0.426821	 0.000000 
Mo153	 0.632188	 0.426821	 0.500000 
Mo154	 0.715521	 0.474934	 0.500000 
S155	 0.659965	 0.474934	 1.000000 
S156	 0.659965	 0.474934	 0.000000 
S157	 0.576632	 0.426821	 1.000000 
S158	 0.576632	 0.426821	 0.000000 
Mo159	 0.465521	 0.426821	 0.500000 
Mo160	 0.548854	 0.474934	 0.500000 
S161	 0.493299	 0.474934	 1.000000 
S162	 0.493299	 0.474934	 0.000000 
S163	 0.409965	 0.426821	 1.000000 
S164	 0.409965	 0.426821	 0.000000 
Mo165	 0.298854	 0.426821	 0.500000 
Mo166	 0.382188	 0.474934	 0.500000 
S167	 0.326632	 0.474934	 1.000000 
S168	 0.326632	 0.474934	 0.000000 
S169	 0.243299	 0.426821	 1.000000 
S170	 0.243299	 0.426821	 0.000000 
Mo171	 0.132188	 0.426821	 0.500000 
Mo172	 0.215521	 0.474934	 0.500000 
S173	 0.159965	 0.474934	 1.000000 
S174	 0.159965	 0.474934	 0.000000 
S175	 0.076632	 0.426821	 1.000000 
S176	 0.076632	 0.426821	 0.000000 
Mo177	 0.965521	 0.426821	 0.500000 
Mo178	 0.048854	 0.474934	 0.500000 
S179	 0.993299	 0.474934	 1.000000 
S180	 0.993299	 0.474934	 0.000000 
S181	 0.909965	 0.523046	 1.000000 
S182	 0.909965	 0.523046	 0.000000 
Mo183	 0.798854	 0.523046	 0.500000 
Mo184	 0.882188	 0.571159	 0.500000 
S185	 0.826632	 0.571159	 1.000000 
S186	 0.826632	 0.571159	 0.000000 
S187	 0.743299	 0.523046	 1.000000 
S188	 0.743299	 0.523046	 0.000000 
Mo189	 0.632188	 0.523046	 0.500000 
Mo190	 0.715521	 0.571159	 0.500000 
S191	 0.659965	 0.571159	 1.000000 
S192	 0.659965	 0.571159	 0.000000 
S193	 0.576632	 0.523046	 1.000000 
S194	 0.576632	 0.523046	 0.000000 
Mo195	 0.465521	 0.523046	 0.500000 
Mo196	 0.548854	 0.571159	 0.500000 
S197	 0.493299	 0.571159	 1.000000 
S198	 0.493299	 0.571159	 0.000000 
S199	 0.409965	 0.523046	 1.000000 
S200	 0.409965	 0.523046	 0.000000 
Mo201	 0.298854	 0.523046	 0.500000 
Mo202	 0.382188	 0.571159	 0.500000 
S203	 0.326632	 0.571159	 1.000000 
S204	 0.326632	 0.571159	 0.000000 
S205	 0.243299	 0.523046	 1.000000 
S206	 0.243299	 0.523046	 0.000000 
Mo207	 0.132188	 0.523046	 0.500000 
Mo208	 0.215521	 0.571159	 0.500000 
S209	 0.159965	 0.571159	 1.000000 
S210	 0.159965	 0.571159	 0.000000 
S211	 0.076632	 0.523046	 1.000000 
S212	 0.076632	 0.523046	 0.000000 
Mo213	 0.965521	 0.523046	 0.500000 
Mo214	 0.048854	 0.571159	 0.500000 
S215	 0.993299	 0.571159	 1.000000 
S216	 0.993299	 0.571159	 0.000000 
S217	 0.909965	 0.619271	 1.000000 
S218	 0.909965	 0.619271	 0.000000 
Mo219	 0.798854	 0.619271	 0.500000 
Mo220	 0.882188	 0.667384	 0.500000 
S221	 0.826632	 0.667384	 1.000000 
S222	 0.826632	 0.667384	 0.000000 
S223	 0.743299	 0.619271	 1.000000 
S224	 0.743299	 0.619271	 0.000000 
Mo225	 0.632188	 0.619271	 0.500000 
Mo226	 0.715521	 0.667384	 0.500000 
S227	 0.659965	 0.667384	 1.000000 
S228	 0.659965	 0.667384	 0.000000 
S229	 0.576632	 0.619271	 1.000000 
S230	 0.576632	 0.619271	 0.000000 
Mo231	 0.465521	 0.619271	 0.500000 
Mo232	 0.548854	 0.667384	 0.500000 
S233	 0.493299	 0.667384	 1.000000 
S234	 0.493299	 0.667384	 0.000000 
S235	 0.409965	 0.619271	 1.000000 
S236	 0.409965	 0.619271	 0.000000 
Mo237	 0.298854	 0.619271	 0.500000 
Mo238	 0.382188	 0.667384	 0.500000 
S239	 0.326632	 0.667384	 1.000000 
S240	 0.326632	 0.667384	 0.000000 
S241	 0.243299	 0.619271	 1.000000 
S242	 0.243299	 0.619271	 0.000000 
Mo243	 0.132188	 0.619271	 0.500000 
Mo244	 0.215521	 0.667384	 0.500000 
S245	 0.159965	 0.667384	 1.000000 
S246	 0.159965	 0.667384	 0.000000 
S247	 0.076632	 0.619271	 1.000000 
S248	 0.076632	 0.619271	 0.000000 
Mo249	 0.965521	 0.619271	 0.500000 
Mo250	 0.048854	 0.667384	 0.500000 
S251	 0.993299	 0.667384	 1.000000 
S252	 0.993299	 0.667384	 0.000000 
S253	 0.909965	 0.715496	 1.000000 
S254	 0.909965	 0.715496	 0.000000 
Mo255	 0.798854	 0.715496	 0.500000 
Mo256	 0.882188	 0.763609	 0.500000 
S257	 0.826632	 0.763609	 1.000000 
S258	 0.826632	 0.763609	 0.000000 
S259	 0.743299	 0.715496	 1.000000 
S260	 0.743299	 0.715496	 0.000000 
Mo261	 0.632188	 0.715496	 0.500000 
Mo262	 0.715521	 0.763609	 0.500000 
S263	 0.659965	 0.763609	 1.000000 
S264	 0.659965	 0.763609	 0.000000 
S265	 0.576632	 0.715496	 1.000000 
S266	 0.576632	 0.715496	 0.000000 
Mo267	 0.465521	 0.715496	 0.500000 
Mo268	 0.548854	 0.763609	 0.500000 
S269	 0.493299	 0.763609	 1.000000 
S270	 0.493299	 0.763609	 0.000000 
S271	 0.409965	 0.715496	 1.000000 
S272	 0.409965	 0.715496	 0.000000 
Mo273	 0.298854	 0.715496	 0.500000 
Mo274	 0.382188	 0.763609	 0.500000 
S275	 0.326632	 0.763609	 1.000000 
S276	 0.326632	 0.763609	 0.000000 
S277	 0.243299	 0.715496	 1.000000 
S278	 0.243299	 0.715496	 0.000000 
Mo279	 0.132188	 0.715496	 0.500000 
Mo280	 0.215521	 0.763609	 0.500000 
S281	 0.159965	 0.763609	 1.000000 
S282	 0.159965	 0.763609	 0.000000 
S283	 0.076632	 0.715496	 1.000000 
S284	 0.076632	 0.715496	 0.000000 
Mo285	 0.965521	 0.715496	 0.500000 
Mo286	 0.048854	 0.763609	 0.500000 
S287	 0.993299	 0.763609	 1.000000 
S288	 0.993299	 0.763609	 0.000000 
S289	 0.909965	 0.811721	 1.000000 
S290	 0.909965	 0.811721	 0.000000 
Mo291	 0.798854	 0.811721	 0.500000 
Mo292	 0.882188	 0.859834	 0.500000 
S293	 0.826632	 0.859834	 1.000000 
S294	 0.826632	 0.859834	 0.000000 
S295	 0.743299	 0.811721	 1.000000 
S296	 0.743299	 0.811721	 0.000000 
Mo297	 0.632188	 0.811721	 0.500000 
Mo298	 0.715521	 0.859834	 0.500000 
S299	 0.659965	 0.859834	 1.000000 
S300	 0.659965	 0.859834	 0.000000 
S301	 0.576632	 0.811721	 1.000000 
S302	 0.576632	 0.811721	 0.000000 
Mo303	 0.465521	 0.811721	 0.500000 
Mo304	 0.548854	 0.859834	 0.500000 
S305	 0.493299	 0.859834	 1.000000 
S306	 0.493299	 0.859834	 0.000000 
S307	 0.409965	 0.811721	 1.000000 
S308	 0.409965	 0.811721	 0.000000 
Mo309	 0.298854	 0.811721	 0.500000 
Mo310	 0.382188	 0.859834	 0.500000 
S311	 0.326632	 0.859834	 1.000000 
S312	 0.326632	 0.859834	 0.000000 
S313	 0.243299	 0.811721	 1.000000 
S314	 0.243299	 0.811721	 0.000000 
Mo315	 0.132188	 0.811721	 0.500000 
Mo316	 0.215521	 0.859834	 0.500000 
S317	 0.159965	 0.859834	 1.000000 
S318	 0.159965	 0.859834	 0.000000 
S319	 0.076632	 0.811721	 1.000000 
S320	 0.076632	 0.811721	 0.000000 
Mo321	 0.965521	 0.811721	 0.500000 
Mo322	 0.048854	 0.859834	 0.500000 
S323	 0.993299	 0.859834	 1.000000 
S324	 0.993299	 0.859834	 0.000000 
S325	 0.909965	 0.907946	 1.000000 
S326	 0.909965	 0.907946	 0.000000 
Mo327	 0.798854	 0.907946	 0.500000 
Mo328	 0.882188	 0.956059	 0.500000 
S329	 0.826632	 0.956059	 1.000000 
S330	 0.826632	 0.956059	 0.000000 
S331	 0.743299	 0.907946	 1.000000 
S332	 0.743299	 0.907946	 0.000000 
Mo333	 0.632188	 0.907946	 0.500000 
Mo334	 0.715521	 0.956059	 0.500000 
S335	 0.659965	 0.956059	 1.000000 
S336	 0.659965	 0.956059	 0.000000 
S337	 0.576632	 0.907946	 1.000000 
S338	 0.576632	 0.907946	 0.000000 
Mo339	 0.465521	 0.907946	 0.500000 
Mo340	 0.548854	 0.956059	 0.500000 
S341	 0.493299	 0.956059	 1.000000 
S342	 0.493299	 0.956059	 0.000000 
S343	 0.409965	 0.907946	 1.000000 
S344	 0.409965	 0.907946	 0.000000 
Mo345	 0.298854	 0.907946	 0.500000 
Mo346	 0.382188	 0.956059	 0.500000 
S347	 0.326632	 0.956059	 1.000000 
S348	 0.326632	 0.956059	 0.000000 
S349	 0.243299	 0.907946	 1.000000 
S350	 0.243299	 0.907946	 0.000000 
Mo351	 0.132188	 0.907946	 0.500000 
Mo352	 0.215521	 0.956059	 0.500000 
S353	 0.159965	 0.956059	 1.000000 
S354	 0.159965	 0.956059	 0.000000 
S355	 0.076632	 0.907946	 1.000000 
S356	 0.076632	 0.907946	 0.000000 
Mo357	 0.965521	 0.907946	 0.500000 
Mo358	 0.048854	 0.956059	 0.500000 
S359	 0.993299	 0.956059	 1.000000 
S360	 0.993299	 0.956059	 0.000000 
#                 ---end-of-data-block---
