data_Pt structure along [001] nx 8 ny 8 nz 1
_cell_length_a               31.360000
_cell_length_b               31.360000
_cell_length_c               3.920000
_cell_angle_alpha          90.000000
_cell_angle_beta           90.000000
_cell_angle_gamma          90.000000
_symmetry_cell_setting          Triclinic
_symmetry_space_group_name_H-M 'P 1' 
loop_
_atom_site_label
_atom_site_fract_x
_atom_site_fract_y
_atom_site_fract_z
Pt1	 0.853495	 0.016477	 0.000000 
Pt2	 0.809301	 0.093024	 0.000000 
Pt3	 0.869672	 0.076848	 0.500000 
Pt4	 0.793125	 0.032654	 0.500000 
Pt5	 0.732755	 0.048830	 0.000000 
Pt6	 0.688561	 0.125376	 0.000000 
Pt7	 0.748931	 0.109200	 0.500000 
Pt8	 0.672384	 0.065006	 0.500000 
Pt9	 0.612014	 0.081182	 0.000000 
Pt10	 0.567820	 0.157729	 0.000000 
Pt11	 0.628190	 0.141552	 0.500000 
Pt12	 0.551644	 0.097358	 0.500000 
Pt13	 0.491273	 0.113535	 0.000000 
Pt14	 0.447079	 0.190081	 0.000000 
Pt15	 0.507449	 0.173905	 0.500000 
Pt16	 0.430903	 0.129711	 0.500000 
Pt17	 0.370533	 0.145887	 0.000000 
Pt18	 0.326338	 0.222433	 0.000000 
Pt19	 0.386709	 0.206257	 0.500000 
Pt20	 0.310162	 0.162063	 0.500000 
Pt21	 0.249792	 0.178239	 0.000000 
Pt22	 0.205598	 0.254786	 0.000000 
Pt23	 0.265968	 0.238610	 0.500000 
Pt24	 0.189421	 0.194415	 0.500000 
Pt25	 0.129051	 0.210592	 0.000000 
Pt26	 0.084857	 0.287138	 0.000000 
Pt27	 0.145227	 0.270962	 0.500000 
Pt28	 0.068681	 0.226768	 0.500000 
Pt29	 0.008310	 0.242944	 0.000000 
Pt30	 0.024487	 0.303314	 0.500000 
Pt31	 0.885848	 0.137218	 0.000000 
Pt32	 0.841654	 0.213765	 0.000000 
Pt33	 0.902024	 0.197588	 0.500000 
Pt34	 0.825477	 0.153394	 0.500000 
Pt35	 0.765107	 0.169570	 0.000000 
Pt36	 0.720913	 0.246117	 0.000000 
Pt37	 0.781283	 0.229941	 0.500000 
Pt38	 0.704737	 0.185747	 0.500000 
Pt39	 0.644366	 0.201923	 0.000000 
Pt40	 0.600172	 0.278469	 0.000000 
Pt41	 0.660543	 0.262293	 0.500000 
Pt42	 0.583996	 0.218099	 0.500000 
Pt43	 0.523626	 0.234275	 0.000000 
Pt44	 0.479431	 0.310822	 0.000000 
Pt45	 0.539802	 0.294646	 0.500000 
Pt46	 0.463255	 0.250451	 0.500000 
Pt47	 0.402885	 0.266628	 0.000000 
Pt48	 0.358691	 0.343174	 0.000000 
Pt49	 0.419061	 0.326998	 0.500000 
Pt50	 0.342515	 0.282804	 0.500000 
Pt51	 0.282144	 0.298980	 0.000000 
Pt52	 0.237950	 0.375527	 0.000000 
Pt53	 0.298320	 0.359350	 0.500000 
Pt54	 0.221774	 0.315156	 0.500000 
Pt55	 0.161403	 0.331332	 0.000000 
Pt56	 0.117209	 0.407879	 0.000000 
Pt57	 0.177580	 0.391703	 0.500000 
Pt58	 0.101033	 0.347509	 0.500000 
Pt59	 0.040663	 0.363685	 0.000000 
Pt60	 0.056839	 0.424055	 0.500000 
Pt61	 0.918200	 0.257959	 0.000000 
Pt62	 0.874006	 0.334505	 0.000000 
Pt63	 0.934376	 0.318329	 0.500000 
Pt64	 0.857830	 0.274135	 0.500000 
Pt65	 0.797459	 0.290311	 0.000000 
Pt66	 0.753265	 0.366858	 0.000000 
Pt67	 0.813636	 0.350682	 0.500000 
Pt68	 0.737089	 0.306487	 0.500000 
Pt69	 0.676719	 0.322664	 0.000000 
Pt70	 0.632525	 0.399210	 0.000000 
Pt71	 0.692895	 0.383034	 0.500000 
Pt72	 0.616348	 0.338840	 0.500000 
Pt73	 0.555978	 0.355016	 0.000000 
Pt74	 0.511784	 0.431563	 0.000000 
Pt75	 0.572154	 0.415386	 0.500000 
Pt76	 0.495608	 0.371192	 0.500000 
Pt77	 0.435237	 0.387368	 0.000000 
Pt78	 0.391043	 0.463915	 0.000000 
Pt79	 0.451413	 0.447739	 0.500000 
Pt80	 0.374867	 0.403545	 0.500000 
Pt81	 0.314497	 0.419721	 0.000000 
Pt82	 0.270302	 0.496267	 0.000000 
Pt83	 0.330673	 0.480091	 0.500000 
Pt84	 0.254126	 0.435897	 0.500000 
Pt85	 0.193756	 0.452073	 0.000000 
Pt86	 0.149562	 0.528620	 0.000000 
Pt87	 0.209932	 0.512443	 0.500000 
Pt88	 0.133385	 0.468249	 0.500000 
Pt89	 0.073015	 0.484425	 0.000000 
Pt90	 0.028821	 0.560972	 0.000000 
Pt91	 0.089191	 0.544796	 0.500000 
Pt92	 0.012645	 0.500602	 0.500000 
Pt93	 0.950553	 0.378700	 0.000000 
Pt94	 0.906358	 0.455246	 0.000000 
Pt95	 0.966729	 0.439070	 0.500000 
Pt96	 0.890182	 0.394876	 0.500000 
Pt97	 0.829812	 0.411052	 0.000000 
Pt98	 0.785618	 0.487598	 0.000000 
Pt99	 0.845988	 0.471422	 0.500000 
Pt100	 0.769441	 0.427228	 0.500000 
Pt101	 0.709071	 0.443404	 0.000000 
Pt102	 0.664877	 0.519951	 0.000000 
Pt103	 0.725247	 0.503775	 0.500000 
Pt104	 0.648701	 0.459581	 0.500000 
Pt105	 0.588330	 0.475757	 0.000000 
Pt106	 0.544136	 0.552303	 0.000000 
Pt107	 0.604507	 0.536127	 0.500000 
Pt108	 0.527960	 0.491933	 0.500000 
Pt109	 0.467590	 0.508109	 0.000000 
Pt110	 0.423395	 0.584656	 0.000000 
Pt111	 0.483766	 0.568479	 0.500000 
Pt112	 0.407219	 0.524285	 0.500000 
Pt113	 0.346849	 0.540461	 0.000000 
Pt114	 0.302655	 0.617008	 0.000000 
Pt115	 0.363025	 0.600832	 0.500000 
Pt116	 0.286479	 0.556638	 0.500000 
Pt117	 0.226108	 0.572814	 0.000000 
Pt118	 0.181914	 0.649360	 0.000000 
Pt119	 0.242284	 0.633184	 0.500000 
Pt120	 0.165738	 0.588990	 0.500000 
Pt121	 0.105367	 0.605166	 0.000000 
Pt122	 0.061173	 0.681713	 0.000000 
Pt123	 0.121544	 0.665537	 0.500000 
Pt124	 0.044997	 0.621342	 0.500000 
Pt125	 0.982905	 0.499440	 0.000000 
Pt126	 0.938711	 0.575987	 0.000000 
Pt127	 0.999081	 0.559811	 0.500000 
Pt128	 0.922535	 0.515616	 0.500000 
Pt129	 0.862164	 0.531793	 0.000000 
Pt130	 0.817970	 0.608339	 0.000000 
Pt131	 0.878340	 0.592163	 0.500000 
Pt132	 0.801794	 0.547969	 0.500000 
Pt133	 0.741423	 0.564145	 0.000000 
Pt134	 0.697229	 0.640692	 0.000000 
Pt135	 0.757600	 0.624515	 0.500000 
Pt136	 0.681053	 0.580321	 0.500000 
Pt137	 0.620683	 0.596497	 0.000000 
Pt138	 0.576489	 0.673044	 0.000000 
Pt139	 0.636859	 0.656868	 0.500000 
Pt140	 0.560312	 0.612674	 0.500000 
Pt141	 0.499942	 0.628850	 0.000000 
Pt142	 0.455748	 0.705396	 0.000000 
Pt143	 0.516118	 0.689220	 0.500000 
Pt144	 0.439572	 0.645026	 0.500000 
Pt145	 0.379201	 0.661202	 0.000000 
Pt146	 0.335007	 0.737749	 0.000000 
Pt147	 0.395378	 0.721573	 0.500000 
Pt148	 0.318831	 0.677378	 0.500000 
Pt149	 0.258461	 0.693555	 0.000000 
Pt150	 0.214266	 0.770101	 0.000000 
Pt151	 0.274637	 0.753925	 0.500000 
Pt152	 0.198090	 0.709731	 0.500000 
Pt153	 0.137720	 0.725907	 0.000000 
Pt154	 0.093526	 0.802453	 0.000000 
Pt155	 0.153896	 0.786277	 0.500000 
Pt156	 0.077349	 0.742083	 0.500000 
Pt157	 0.971063	 0.696728	 0.000000 
Pt158	 0.954887	 0.636357	 0.500000 
Pt159	 0.894517	 0.652533	 0.000000 
Pt160	 0.850322	 0.729080	 0.000000 
Pt161	 0.910693	 0.712904	 0.500000 
Pt162	 0.834146	 0.668710	 0.500000 
Pt163	 0.773776	 0.684886	 0.000000 
Pt164	 0.729582	 0.761432	 0.000000 
Pt165	 0.789952	 0.745256	 0.500000 
Pt166	 0.713406	 0.701062	 0.500000 
Pt167	 0.653035	 0.717238	 0.000000 
Pt168	 0.608841	 0.793785	 0.000000 
Pt169	 0.669211	 0.777609	 0.500000 
Pt170	 0.592665	 0.733414	 0.500000 
Pt171	 0.532294	 0.749591	 0.000000 
Pt172	 0.488100	 0.826137	 0.000000 
Pt173	 0.548471	 0.809961	 0.500000 
Pt174	 0.471924	 0.765767	 0.500000 
Pt175	 0.411554	 0.781943	 0.000000 
Pt176	 0.367360	 0.858489	 0.000000 
Pt177	 0.427730	 0.842313	 0.500000 
Pt178	 0.351183	 0.798119	 0.500000 
Pt179	 0.290813	 0.814295	 0.000000 
Pt180	 0.246619	 0.890842	 0.000000 
Pt181	 0.306989	 0.874666	 0.500000 
Pt182	 0.230443	 0.830471	 0.500000 
Pt183	 0.170072	 0.846648	 0.000000 
Pt184	 0.125878	 0.923194	 0.000000 
Pt185	 0.186248	 0.907018	 0.500000 
Pt186	 0.109702	 0.862824	 0.500000 
Pt187	 0.987239	 0.757098	 0.500000 
Pt188	 0.926869	 0.773274	 0.000000 
Pt189	 0.882675	 0.849821	 0.000000 
Pt190	 0.943045	 0.833644	 0.500000 
Pt191	 0.866499	 0.789450	 0.500000 
Pt192	 0.806128	 0.805626	 0.000000 
Pt193	 0.761934	 0.882173	 0.000000 
Pt194	 0.822304	 0.865997	 0.500000 
Pt195	 0.745758	 0.821803	 0.500000 
Pt196	 0.685388	 0.837979	 0.000000 
Pt197	 0.641193	 0.914525	 0.000000 
Pt198	 0.701564	 0.898349	 0.500000 
Pt199	 0.625017	 0.854155	 0.500000 
Pt200	 0.564647	 0.870331	 0.000000 
Pt201	 0.520453	 0.946878	 0.000000 
Pt202	 0.580823	 0.930702	 0.500000 
Pt203	 0.504276	 0.886507	 0.500000 
Pt204	 0.443906	 0.902684	 0.000000 
Pt205	 0.399712	 0.979230	 0.000000 
Pt206	 0.460082	 0.963054	 0.500000 
Pt207	 0.383536	 0.918860	 0.500000 
Pt208	 0.323165	 0.935036	 0.000000 
Pt209	 0.339342	 0.995406	 0.500000 
Pt210	 0.262795	 0.951212	 0.500000 
Pt211	 0.202425	 0.967388	 0.000000 
Pt212	 0.142054	 0.983565	 0.500000 
Pt213	 0.959221	 0.894015	 0.000000 
Pt214	 0.656208	 0.004636	 0.000000 
Pt215	 0.898851	 0.910191	 0.500000 
Pt216	 0.838481	 0.926367	 0.000000 
Pt217	 0.535467	 0.036988	 0.000000 
Pt218	 0.595838	 0.020812	 0.500000 
Pt219	 0.778110	 0.942543	 0.500000 
Pt220	 0.717740	 0.958720	 0.000000 
Pt221	 0.414727	 0.069340	 0.000000 
Pt222	 0.475097	 0.053164	 0.500000 
Pt223	 0.657370	 0.974896	 0.500000 
Pt224	 0.596999	 0.991072	 0.000000 
Pt225	 0.293986	 0.101693	 0.000000 
Pt226	 0.354356	 0.085517	 0.500000 
Pt227	 0.173245	 0.134045	 0.000000 
Pt228	 0.233616	 0.117869	 0.500000 
Pt229	 0.052505	 0.166397	 0.000000 
Pt230	 0.112875	 0.150221	 0.500000 
#                 ---end-of-data-block---
