data_Si [110] nx 8 ny 6 nz 1
_cell_length_a               32.580000
_cell_length_b               32.580000
_cell_length_c               3.839590
_cell_angle_alpha          90.000000
_cell_angle_beta           90.000000
_cell_angle_gamma          90.000000
_symmetry_cell_setting          Triclinic
_symmetry_space_group_name_H-M 'P 1' 
loop_
_atom_site_label
_atom_site_fract_x
_atom_site_fract_y
_atom_site_fract_z
Si1	 0.227398	 0.030091	 0.000000 
Si2	 0.251963	 0.166082	 0.000000 
Si3	 0.216614	 0.070337	 0.500000 
Si4	 0.262748	 0.125835	 0.500000 
Si5	 0.184262	 0.191078	 0.000000 
Si6	 0.208827	 0.327070	 0.000000 
Si7	 0.173477	 0.231325	 0.500000 
Si8	 0.219611	 0.286823	 0.500000 
Si9	 0.141125	 0.352066	 0.000000 
Si10	 0.165690	 0.488058	 0.000000 
Si11	 0.130341	 0.392313	 0.500000 
Si12	 0.176475	 0.447811	 0.500000 
Si13	 0.097989	 0.513053	 0.000000 
Si14	 0.122554	 0.649045	 0.000000 
Si15	 0.087204	 0.553300	 0.500000 
Si16	 0.133338	 0.608798	 0.500000 
Si17	 0.054852	 0.674041	 0.000000 
Si18	 0.079417	 0.810033	 0.000000 
Si19	 0.044068	 0.714288	 0.500000 
Si20	 0.090201	 0.769786	 0.500000 
Si21	 0.011716	 0.835029	 0.000000 
Si22	 0.295100	 0.005095	 0.000000 
Si23	 0.000931	 0.875276	 0.500000 
Si24	 0.341234	 0.060593	 0.000000 
Si25	 0.365799	 0.196584	 0.000000 
Si26	 0.330449	 0.100840	 0.500000 
Si27	 0.376583	 0.156338	 0.500000 
Si28	 0.298097	 0.221580	 0.000000 
Si29	 0.322662	 0.357572	 0.000000 
Si30	 0.287313	 0.261827	 0.500000 
Si31	 0.333446	 0.317325	 0.500000 
Si32	 0.254960	 0.382568	 0.000000 
Si33	 0.279526	 0.518560	 0.000000 
Si34	 0.244176	 0.422815	 0.500000 
Si35	 0.290310	 0.478313	 0.500000 
Si36	 0.211824	 0.543556	 0.000000 
Si37	 0.236389	 0.679547	 0.000000 
Si38	 0.201040	 0.583802	 0.500000 
Si39	 0.247173	 0.639300	 0.500000 
Si40	 0.168687	 0.704543	 0.000000 
Si41	 0.193253	 0.840535	 0.000000 
Si42	 0.157903	 0.744790	 0.500000 
Si43	 0.204037	 0.800288	 0.500000 
Si44	 0.125551	 0.865531	 0.000000 
Si45	 0.408935	 0.035597	 0.000000 
Si46	 0.114767	 0.905778	 0.500000 
Si47	 0.455069	 0.091095	 0.000000 
Si48	 0.479634	 0.227087	 0.000000 
Si49	 0.444285	 0.131342	 0.500000 
Si50	 0.490418	 0.186840	 0.500000 
Si51	 0.411932	 0.252082	 0.000000 
Si52	 0.436498	 0.388074	 0.000000 
Si53	 0.401148	 0.292329	 0.500000 
Si54	 0.447282	 0.347827	 0.500000 
Si55	 0.368796	 0.413070	 0.000000 
Si56	 0.393361	 0.549062	 0.000000 
Si57	 0.358012	 0.453317	 0.500000 
Si58	 0.404145	 0.508815	 0.500000 
Si59	 0.325659	 0.574058	 0.000000 
Si60	 0.350225	 0.710049	 0.000000 
Si61	 0.314875	 0.614305	 0.500000 
Si62	 0.361009	 0.669803	 0.500000 
Si63	 0.282523	 0.735045	 0.000000 
Si64	 0.307088	 0.871037	 0.000000 
Si65	 0.271739	 0.775292	 0.500000 
Si66	 0.317872	 0.830790	 0.500000 
Si67	 0.239386	 0.896033	 0.000000 
Si68	 0.522771	 0.066099	 0.000000 
Si69	 0.228602	 0.936280	 0.500000 
Si70	 0.533555	 0.025852	 0.500000 
Si71	 0.568904	 0.121597	 0.000000 
Si72	 0.593470	 0.257589	 0.000000 
Si73	 0.558120	 0.161844	 0.500000 
Si74	 0.604254	 0.217342	 0.500000 
Si75	 0.525768	 0.282585	 0.000000 
Si76	 0.550333	 0.418576	 0.000000 
Si77	 0.514984	 0.322831	 0.500000 
Si78	 0.561117	 0.378329	 0.500000 
Si79	 0.482631	 0.443572	 0.000000 
Si80	 0.507197	 0.579564	 0.000000 
Si81	 0.471847	 0.483819	 0.500000 
Si82	 0.517981	 0.539317	 0.500000 
Si83	 0.439495	 0.604560	 0.000000 
Si84	 0.464060	 0.740552	 0.000000 
Si85	 0.428711	 0.644807	 0.500000 
Si86	 0.474844	 0.700305	 0.500000 
Si87	 0.396358	 0.765547	 0.000000 
Si88	 0.420924	 0.901539	 0.000000 
Si89	 0.385574	 0.805794	 0.500000 
Si90	 0.431708	 0.861292	 0.500000 
Si91	 0.353222	 0.926535	 0.000000 
Si92	 0.636606	 0.096601	 0.000000 
Si93	 0.342438	 0.966782	 0.500000 
Si94	 0.647390	 0.056354	 0.500000 
Si95	 0.682740	 0.152099	 0.000000 
Si96	 0.707305	 0.288091	 0.000000 
Si97	 0.671956	 0.192346	 0.500000 
Si98	 0.718089	 0.247844	 0.500000 
Si99	 0.639603	 0.313087	 0.000000 
Si100	 0.664169	 0.449078	 0.000000 
Si101	 0.628819	 0.353334	 0.500000 
Si102	 0.674953	 0.408832	 0.500000 
Si103	 0.596467	 0.474074	 0.000000 
Si104	 0.621032	 0.610066	 0.000000 
Si105	 0.585683	 0.514321	 0.500000 
Si106	 0.631816	 0.569819	 0.500000 
Si107	 0.553330	 0.635062	 0.000000 
Si108	 0.577896	 0.771054	 0.000000 
Si109	 0.542546	 0.675309	 0.500000 
Si110	 0.588680	 0.730807	 0.500000 
Si111	 0.510194	 0.796050	 0.000000 
Si112	 0.534759	 0.932041	 0.000000 
Si113	 0.499410	 0.836296	 0.500000 
Si114	 0.545543	 0.891794	 0.500000 
Si115	 0.467057	 0.957037	 0.000000 
Si116	 0.750442	 0.127103	 0.000000 
Si117	 0.456273	 0.997284	 0.500000 
Si118	 0.761226	 0.086856	 0.500000 
Si119	 0.796575	 0.182601	 0.000000 
Si120	 0.821141	 0.318593	 0.000000 
Si121	 0.785791	 0.222848	 0.500000 
Si122	 0.831925	 0.278346	 0.500000 
Si123	 0.753439	 0.343589	 0.000000 
Si124	 0.778004	 0.479581	 0.000000 
Si125	 0.742655	 0.383836	 0.500000 
Si126	 0.788788	 0.439334	 0.500000 
Si127	 0.710302	 0.504576	 0.000000 
Si128	 0.734868	 0.640568	 0.000000 
Si129	 0.699518	 0.544823	 0.500000 
Si130	 0.745652	 0.600321	 0.500000 
Si131	 0.667166	 0.665564	 0.000000 
Si132	 0.691731	 0.801556	 0.000000 
Si133	 0.656382	 0.705811	 0.500000 
Si134	 0.702515	 0.761309	 0.500000 
Si135	 0.624029	 0.826552	 0.000000 
Si136	 0.648595	 0.962543	 0.000000 
Si137	 0.613245	 0.866799	 0.500000 
Si138	 0.659379	 0.922297	 0.500000 
Si139	 0.580893	 0.987539	 0.000000 
Si140	 0.864277	 0.157605	 0.000000 
Si141	 0.875061	 0.117358	 0.500000 
Si142	 0.910411	 0.213103	 0.000000 
Si143	 0.934976	 0.349095	 0.000000 
Si144	 0.899627	 0.253350	 0.500000 
Si145	 0.945760	 0.308848	 0.500000 
Si146	 0.867274	 0.374091	 0.000000 
Si147	 0.891840	 0.510083	 0.000000 
Si148	 0.856490	 0.414338	 0.500000 
Si149	 0.902624	 0.469836	 0.500000 
Si150	 0.824138	 0.535079	 0.000000 
Si151	 0.848703	 0.671070	 0.000000 
Si152	 0.813354	 0.575325	 0.500000 
Si153	 0.859487	 0.630823	 0.500000 
Si154	 0.781001	 0.696066	 0.000000 
Si155	 0.805567	 0.832058	 0.000000 
Si156	 0.770217	 0.736313	 0.500000 
Si157	 0.816351	 0.791811	 0.500000 
Si158	 0.737865	 0.857054	 0.000000 
Si159	 0.762430	 0.993046	 0.000000 
Si160	 0.727081	 0.897301	 0.500000 
Si161	 0.773214	 0.952799	 0.500000 
Si162	 0.978113	 0.188107	 0.000000 
Si163	 0.988897	 0.147860	 0.500000 
Si164	 0.138128	 0.135580	 0.000000 
Si165	 0.148912	 0.095333	 0.500000 
Si166	 0.981110	 0.404593	 0.000000 
Si167	 0.094991	 0.296568	 0.000000 
Si168	 0.970326	 0.444840	 0.500000 
Si169	 0.105776	 0.256321	 0.500000 
Si170	 0.937973	 0.565581	 0.000000 
Si171	 0.051855	 0.457555	 0.000000 
Si172	 0.927189	 0.605828	 0.500000 
Si173	 0.062639	 0.417309	 0.500000 
Si174	 0.894837	 0.726568	 0.000000 
Si175	 0.008718	 0.618543	 0.000000 
Si176	 0.884053	 0.766815	 0.500000 
Si177	 0.019503	 0.578296	 0.500000 
Si178	 0.851700	 0.887556	 0.000000 
Si179	 0.840916	 0.927803	 0.500000 
#                 ---end-of-data-block---
