data_STO [001]8x8x1
_cell_length_a               31.240000
_cell_length_b               31.240000
_cell_length_c               3.905000
_cell_angle_alpha          90.000000
_cell_angle_beta           90.000000
_cell_angle_gamma          90.000000
_symmetry_cell_setting          Triclinic
_symmetry_space_group_name_H-M 'P 1' 
loop_
_atom_site_label
_atom_site_fract_x
_atom_site_fract_y
_atom_site_fract_z
Ti1	 0.398966	 0.048801	 0.500000 
Sr2	 0.313589	 0.071678	 0.000000 
Ti3	 0.336466	 0.157054	 0.500000 
Sr4	 0.251089	 0.179931	 0.000000 
Ti5	 0.273966	 0.265307	 0.500000 
Sr6	 0.188589	 0.288184	 0.000000 
Ti7	 0.211466	 0.373561	 0.500000 
Sr8	 0.126089	 0.396437	 0.000000 
Ti9	 0.148966	 0.481814	 0.500000 
Sr10	 0.063589	 0.504690	 0.000000 
Ti11	 0.086466	 0.590067	 0.500000 
Sr12	 0.001089	 0.612943	 0.000000 
Ti13	 0.023966	 0.698320	 0.500000 
Sr14	 0.484342	 0.025924	 0.000000 
Ti15	 0.507219	 0.111301	 0.500000 
Sr16	 0.421842	 0.134178	 0.000000 
Ti17	 0.444719	 0.219554	 0.500000 
Sr18	 0.359342	 0.242431	 0.000000 
Ti19	 0.382219	 0.327807	 0.500000 
Sr20	 0.296842	 0.350684	 0.000000 
Ti21	 0.319719	 0.436061	 0.500000 
Sr22	 0.234342	 0.458937	 0.000000 
Ti23	 0.257219	 0.544314	 0.500000 
Sr24	 0.171842	 0.567190	 0.000000 
Ti25	 0.194719	 0.652567	 0.500000 
Sr26	 0.109342	 0.675443	 0.000000 
Ti27	 0.132219	 0.760820	 0.500000 
Sr28	 0.046842	 0.783697	 0.000000 
Ti29	 0.569719	 0.003048	 0.500000 
Sr30	 0.592596	 0.088424	 0.000000 
Ti31	 0.615472	 0.173801	 0.500000 
Sr32	 0.530096	 0.196678	 0.000000 
Ti33	 0.552972	 0.282054	 0.500000 
Sr34	 0.467596	 0.304931	 0.000000 
Ti35	 0.490472	 0.390307	 0.500000 
Sr36	 0.405096	 0.413184	 0.000000 
Ti37	 0.427972	 0.498561	 0.500000 
Sr38	 0.342596	 0.521437	 0.000000 
Ti39	 0.365472	 0.606814	 0.500000 
Sr40	 0.280096	 0.629690	 0.000000 
Ti41	 0.302972	 0.715067	 0.500000 
Sr42	 0.217596	 0.737943	 0.000000 
Ti43	 0.240472	 0.823320	 0.500000 
Sr44	 0.155096	 0.846197	 0.000000 
Ti45	 0.677972	 0.065548	 0.500000 
Sr46	 0.700849	 0.150924	 0.000000 
Ti47	 0.723725	 0.236301	 0.500000 
Sr48	 0.638349	 0.259178	 0.000000 
Ti49	 0.661225	 0.344554	 0.500000 
Sr50	 0.575849	 0.367431	 0.000000 
Ti51	 0.598725	 0.452807	 0.500000 
Sr52	 0.513349	 0.475684	 0.000000 
Ti53	 0.536225	 0.561061	 0.500000 
Sr54	 0.450849	 0.583937	 0.000000 
Ti55	 0.473725	 0.669314	 0.500000 
Sr56	 0.388349	 0.692190	 0.000000 
Ti57	 0.411225	 0.777567	 0.500000 
Sr58	 0.325849	 0.800443	 0.000000 
Ti59	 0.348725	 0.885820	 0.500000 
Sr60	 0.263349	 0.908697	 0.000000 
Ti61	 0.786225	 0.128048	 0.500000 
Sr62	 0.809102	 0.213424	 0.000000 
Ti63	 0.831979	 0.298801	 0.500000 
Sr64	 0.746602	 0.321678	 0.000000 
Ti65	 0.769479	 0.407054	 0.500000 
Sr66	 0.684102	 0.429931	 0.000000 
Ti67	 0.706979	 0.515307	 0.500000 
Sr68	 0.621602	 0.538184	 0.000000 
Ti69	 0.644479	 0.623561	 0.500000 
Sr70	 0.559102	 0.646437	 0.000000 
Ti71	 0.581979	 0.731814	 0.500000 
Sr72	 0.496602	 0.754690	 0.000000 
Ti73	 0.519479	 0.840067	 0.500000 
Sr74	 0.434102	 0.862943	 0.000000 
Ti75	 0.456979	 0.948320	 0.500000 
Sr76	 0.371602	 0.971197	 0.000000 
Ti77	 0.894479	 0.190548	 0.500000 
Sr78	 0.917355	 0.275924	 0.000000 
Ti79	 0.940232	 0.361301	 0.500000 
Sr80	 0.854855	 0.384178	 0.000000 
Ti81	 0.877732	 0.469554	 0.500000 
Sr82	 0.792355	 0.492431	 0.000000 
Ti83	 0.815232	 0.577807	 0.500000 
Sr84	 0.729855	 0.600684	 0.000000 
Ti85	 0.752732	 0.686061	 0.500000 
Sr86	 0.667355	 0.708937	 0.000000 
Ti87	 0.690232	 0.794314	 0.500000 
Sr88	 0.604855	 0.817190	 0.000000 
Ti89	 0.627732	 0.902567	 0.500000 
Sr90	 0.542355	 0.925443	 0.000000 
Sr91	 0.963108	 0.446678	 0.000000 
Ti92	 0.985985	 0.532054	 0.500000 
Sr93	 0.900608	 0.554931	 0.000000 
Ti94	 0.923485	 0.640307	 0.500000 
Sr95	 0.838108	 0.663184	 0.000000 
Ti96	 0.860985	 0.748561	 0.500000 
Sr97	 0.775608	 0.771437	 0.000000 
Ti98	 0.798485	 0.856814	 0.500000 
Sr99	 0.713108	 0.879690	 0.000000 
Ti100	 0.735985	 0.965067	 0.500000 
Sr101	 0.650608	 0.987943	 0.000000 
Ti102	 0.228213	 0.094554	 0.500000 
Ti103	 0.165713	 0.202807	 0.500000 
Sr104	 0.946361	 0.725684	 0.000000 
Ti105	 0.103213	 0.311061	 0.500000 
Sr106	 0.883861	 0.833937	 0.000000 
Ti107	 0.040713	 0.419314	 0.500000 
Sr108	 0.821361	 0.942190	 0.000000 
#                 ---end-of-data-block---
