data_Pt structure along [001] nx 7 ny 7 nz 1
_cell_length_a               29.260000
_cell_length_b               29.260000
_cell_length_c               4.180000
_cell_angle_alpha          90.000000
_cell_angle_beta           90.000000
_cell_angle_gamma          90.000000
_symmetry_cell_setting          Triclinic
_symmetry_space_group_name_H-M 'P 1' 
loop_
_atom_site_label
_atom_site_fract_x
_atom_site_fract_y
_atom_site_fract_z
Co1	 0.726173	 0.006225	 0.000000 
Co2	 0.657178	 0.024712	 0.500000 
Co3	 0.588183	 0.043199	 0.000000 
Co4	 0.519188	 0.061687	 0.500000 
Co5	 0.450194	 0.080174	 0.000000 
Co6	 0.431707	 0.011179	 0.500000 
Co7	 0.362712	 0.029666	 0.000000 
Co8	 0.381199	 0.098661	 0.500000 
Co9	 0.312204	 0.117148	 0.000000 
Co10	 0.293717	 0.048153	 0.500000 
Co11	 0.224723	 0.066640	 0.000000 
Co12	 0.243210	 0.135635	 0.500000 
Co13	 0.174215	 0.154122	 0.000000 
Co14	 0.155728	 0.085127	 0.500000 
Co15	 0.086733	 0.103614	 0.000000 
Co16	 0.105220	 0.172609	 0.500000 
Co17	 0.036226	 0.191096	 0.000000 
Co18	 0.017738	 0.122101	 0.500000 
Co19	 0.813654	 0.056733	 0.000000 
Co20	 0.832141	 0.125728	 0.500000 
Co21	 0.763147	 0.144215	 0.000000 
Co22	 0.744660	 0.075220	 0.500000 
Co23	 0.675665	 0.093707	 0.000000 
Co24	 0.694152	 0.162702	 0.500000 
Co25	 0.625157	 0.181189	 0.000000 
Co26	 0.606670	 0.112194	 0.500000 
Co27	 0.537676	 0.130681	 0.000000 
Co28	 0.556163	 0.199676	 0.500000 
Co29	 0.487168	 0.218163	 0.000000 
Co30	 0.468681	 0.149168	 0.500000 
Co31	 0.399686	 0.167655	 0.000000 
Co32	 0.418173	 0.236650	 0.500000 
Co33	 0.349179	 0.255137	 0.000000 
Co34	 0.330691	 0.186142	 0.500000 
Co35	 0.261697	 0.204630	 0.000000 
Co36	 0.280184	 0.273624	 0.500000 
Co37	 0.211189	 0.292111	 0.000000 
Co38	 0.192702	 0.223117	 0.500000 
Co39	 0.123707	 0.241604	 0.000000 
Co40	 0.142194	 0.310598	 0.500000 
Co41	 0.073200	 0.329085	 0.000000 
Co42	 0.054713	 0.260091	 0.500000 
Co43	 0.004205	 0.347573	 0.500000 
Co44	 0.901136	 0.107241	 0.000000 
Co45	 0.882649	 0.038246	 0.500000 
Co46	 0.850628	 0.194722	 0.000000 
Co47	 0.869116	 0.263717	 0.500000 
Co48	 0.800121	 0.282204	 0.000000 
Co49	 0.781634	 0.213209	 0.500000 
Co50	 0.712639	 0.231696	 0.000000 
Co51	 0.731126	 0.300691	 0.500000 
Co52	 0.662131	 0.319178	 0.000000 
Co53	 0.643644	 0.250184	 0.500000 
Co54	 0.574650	 0.268671	 0.000000 
Co55	 0.593137	 0.337665	 0.500000 
Co56	 0.524142	 0.356152	 0.000000 
Co57	 0.505655	 0.287158	 0.500000 
Co58	 0.436660	 0.305645	 0.000000 
Co59	 0.455147	 0.374639	 0.500000 
Co60	 0.386153	 0.393127	 0.000000 
Co61	 0.367666	 0.324132	 0.500000 
Co62	 0.298671	 0.342619	 0.000000 
Co63	 0.317158	 0.411614	 0.500000 
Co64	 0.248163	 0.430101	 0.000000 
Co65	 0.229676	 0.361106	 0.500000 
Co66	 0.160681	 0.379593	 0.000000 
Co67	 0.179169	 0.448588	 0.500000 
Co68	 0.110174	 0.467075	 0.000000 
Co69	 0.091687	 0.398080	 0.500000 
Co70	 0.022692	 0.416567	 0.000000 
Co71	 0.041179	 0.485562	 0.500000 
Co72	 0.938110	 0.245230	 0.000000 
Co73	 0.919623	 0.176235	 0.500000 
Co74	 0.887603	 0.332712	 0.000000 
Co75	 0.906090	 0.401706	 0.500000 
Co76	 0.837095	 0.420194	 0.000000 
Co77	 0.818608	 0.351199	 0.500000 
Co78	 0.749613	 0.369686	 0.000000 
Co79	 0.768100	 0.438681	 0.500000 
Co80	 0.699106	 0.457168	 0.000000 
Co81	 0.680619	 0.388173	 0.500000 
Co82	 0.611624	 0.406660	 0.000000 
Co83	 0.630111	 0.475655	 0.500000 
Co84	 0.561116	 0.494142	 0.000000 
Co85	 0.542629	 0.425147	 0.500000 
Co86	 0.473634	 0.443634	 0.000000 
Co87	 0.492122	 0.512629	 0.500000 
Co88	 0.423127	 0.531116	 0.000000 
Co89	 0.404640	 0.462121	 0.500000 
Co90	 0.335645	 0.480608	 0.000000 
Co91	 0.354132	 0.549603	 0.500000 
Co92	 0.285137	 0.568090	 0.000000 
Co93	 0.266650	 0.499095	 0.500000 
Co94	 0.197656	 0.517582	 0.000000 
Co95	 0.216143	 0.586577	 0.500000 
Co96	 0.147148	 0.605064	 0.000000 
Co97	 0.128661	 0.536070	 0.500000 
Co98	 0.059666	 0.554557	 0.000000 
Co99	 0.078153	 0.623551	 0.500000 
Co100	 0.975084	 0.383219	 0.000000 
Co101	 0.956597	 0.314225	 0.500000 
Co102	 0.924577	 0.470701	 0.000000 
Co103	 0.943064	 0.539696	 0.500000 
Co104	 0.874069	 0.558183	 0.000000 
Co105	 0.855582	 0.489188	 0.500000 
Co106	 0.786587	 0.507675	 0.000000 
Co107	 0.805074	 0.576670	 0.500000 
Co108	 0.736080	 0.595157	 0.000000 
Co109	 0.717593	 0.526162	 0.500000 
Co110	 0.648598	 0.544649	 0.000000 
Co111	 0.667085	 0.613644	 0.500000 
Co112	 0.598090	 0.632131	 0.000000 
Co113	 0.579603	 0.563137	 0.500000 
Co114	 0.510609	 0.581624	 0.000000 
Co115	 0.529096	 0.650618	 0.500000 
Co116	 0.460101	 0.669105	 0.000000 
Co117	 0.441614	 0.600111	 0.500000 
Co118	 0.372619	 0.618598	 0.000000 
Co119	 0.391106	 0.687592	 0.500000 
Co120	 0.322112	 0.706080	 0.000000 
Co121	 0.303624	 0.637085	 0.500000 
Co122	 0.234630	 0.655572	 0.000000 
Co123	 0.253117	 0.724567	 0.500000 
Co124	 0.184122	 0.743054	 0.000000 
Co125	 0.165635	 0.674059	 0.500000 
Co126	 0.096640	 0.692546	 0.000000 
Co127	 0.115127	 0.761541	 0.500000 
Co128	 0.993571	 0.452214	 0.500000 
Co129	 0.961551	 0.608691	 0.000000 
Co130	 0.980038	 0.677685	 0.500000 
Co131	 0.911043	 0.696172	 0.000000 
Co132	 0.892556	 0.627178	 0.500000 
Co133	 0.823562	 0.645665	 0.000000 
Co134	 0.842049	 0.714659	 0.500000 
Co135	 0.773054	 0.733146	 0.000000 
Co136	 0.754567	 0.664152	 0.500000 
Co137	 0.685572	 0.682639	 0.000000 
Co138	 0.704059	 0.751634	 0.500000 
Co139	 0.635065	 0.770121	 0.000000 
Co140	 0.616577	 0.701126	 0.500000 
Co141	 0.547583	 0.719613	 0.000000 
Co142	 0.566070	 0.788608	 0.500000 
Co143	 0.497075	 0.807095	 0.000000 
Co144	 0.478588	 0.738100	 0.500000 
Co145	 0.409593	 0.756587	 0.000000 
Co146	 0.428080	 0.825582	 0.500000 
Co147	 0.359086	 0.844069	 0.000000 
Co148	 0.340599	 0.775074	 0.500000 
Co149	 0.271604	 0.793561	 0.000000 
Co150	 0.290091	 0.862556	 0.500000 
Co151	 0.221096	 0.881043	 0.000000 
Co152	 0.202609	 0.812048	 0.500000 
Co153	 0.133615	 0.830535	 0.000000 
Co154	 0.152102	 0.899530	 0.500000 
Co155	 0.998525	 0.746680	 0.000000 
Co156	 0.948017	 0.834162	 0.000000 
Co157	 0.929530	 0.765167	 0.500000 
Co158	 0.860536	 0.783654	 0.000000 
Co159	 0.879023	 0.852649	 0.500000 
Co160	 0.810028	 0.871136	 0.000000 
Co161	 0.791541	 0.802141	 0.500000 
Co162	 0.722546	 0.820628	 0.000000 
Co163	 0.741033	 0.889623	 0.500000 
Co164	 0.672039	 0.908110	 0.000000 
Co165	 0.653552	 0.839115	 0.500000 
Co166	 0.584557	 0.857602	 0.000000 
Co167	 0.603044	 0.926597	 0.500000 
Co168	 0.534049	 0.945084	 0.000000 
Co169	 0.515562	 0.876089	 0.500000 
Co170	 0.446567	 0.894577	 0.000000 
Co171	 0.465055	 0.963571	 0.500000 
Co172	 0.396060	 0.982058	 0.000000 
Co173	 0.377573	 0.913064	 0.500000 
Co174	 0.308578	 0.931551	 0.000000 
Co175	 0.239583	 0.950038	 0.500000 
Co176	 0.170589	 0.968525	 0.000000 
#                 ---end-of-data-block---
