data_TiO2_rutile [110] nx 10 ny 5 nz 1
_cell_length_a               32.484485
_cell_length_b               32.484485
_cell_length_c               6.496897
_cell_angle_alpha          90.000000
_cell_angle_beta           90.000000
_cell_angle_gamma          90.000000
_symmetry_cell_setting          Triclinic
_symmetry_space_group_name_H-M 'P 1' 
loop_
_atom_site_label
_atom_site_fract_x
_atom_site_fract_y
_atom_site_fract_z
Ti1	 0.201318	 0.038966	 0.000000 
Ti2	 0.175436	 0.135559	 0.500000 
Ti3	 0.219429	 0.147347	 0.000000 
Ti4	 0.245311	 0.050754	 0.500000 
Ti5	 0.149554	 0.232152	 0.000000 
Ti6	 0.123672	 0.328744	 0.500000 
Ti7	 0.167665	 0.340532	 0.000000 
Ti8	 0.193547	 0.243939	 0.500000 
Ti9	 0.097790	 0.425337	 0.000000 
Ti10	 0.071908	 0.521929	 0.500000 
Ti11	 0.115901	 0.533717	 0.000000 
Ti12	 0.141783	 0.437125	 0.500000 
Ti13	 0.046026	 0.618522	 0.000000 
Ti14	 0.020144	 0.715114	 0.500000 
Ti15	 0.064137	 0.726902	 0.000000 
Ti16	 0.090019	 0.630310	 0.500000 
Ti17	 0.038255	 0.823495	 0.500000 
Ti18	 0.289304	 0.062542	 0.000000 
Ti19	 0.263422	 0.159135	 0.500000 
Ti20	 0.307415	 0.170923	 0.000000 
Ti21	 0.333297	 0.074330	 0.500000 
Ti22	 0.237540	 0.255727	 0.000000 
Ti23	 0.211658	 0.352320	 0.500000 
Ti24	 0.255651	 0.364108	 0.000000 
Ti25	 0.281533	 0.267515	 0.500000 
Ti26	 0.185776	 0.448912	 0.000000 
Ti27	 0.159894	 0.545505	 0.500000 
Ti28	 0.203887	 0.557293	 0.000000 
Ti29	 0.229769	 0.460700	 0.500000 
Ti30	 0.134012	 0.642098	 0.000000 
Ti31	 0.108130	 0.738690	 0.500000 
Ti32	 0.152123	 0.750478	 0.000000 
Ti33	 0.178005	 0.653885	 0.500000 
Ti34	 0.082248	 0.835283	 0.000000 
Ti35	 0.126241	 0.847071	 0.500000 
Ti36	 0.377289	 0.086118	 0.000000 
Ti37	 0.351408	 0.182710	 0.500000 
Ti38	 0.395400	 0.194498	 0.000000 
Ti39	 0.421282	 0.097906	 0.500000 
Ti40	 0.325526	 0.279303	 0.000000 
Ti41	 0.299644	 0.375896	 0.500000 
Ti42	 0.343637	 0.387683	 0.000000 
Ti43	 0.369519	 0.291091	 0.500000 
Ti44	 0.273762	 0.472488	 0.000000 
Ti45	 0.247880	 0.569081	 0.500000 
Ti46	 0.291873	 0.580869	 0.000000 
Ti47	 0.317755	 0.484276	 0.500000 
Ti48	 0.221998	 0.665673	 0.000000 
Ti49	 0.196116	 0.762266	 0.500000 
Ti50	 0.240109	 0.774054	 0.000000 
Ti51	 0.265991	 0.677461	 0.500000 
Ti52	 0.170234	 0.858859	 0.000000 
Ti53	 0.447164	 0.001313	 0.000000 
Ti54	 0.214227	 0.870646	 0.500000 
Ti55	 0.465275	 0.109694	 0.000000 
Ti56	 0.439393	 0.206286	 0.500000 
Ti57	 0.483386	 0.218074	 0.000000 
Ti58	 0.509268	 0.121481	 0.500000 
Ti59	 0.413511	 0.302879	 0.000000 
Ti60	 0.387630	 0.399471	 0.500000 
Ti61	 0.431622	 0.411259	 0.000000 
Ti62	 0.457504	 0.314667	 0.500000 
Ti63	 0.361748	 0.496064	 0.000000 
Ti64	 0.335866	 0.592657	 0.500000 
Ti65	 0.379859	 0.604444	 0.000000 
Ti66	 0.405741	 0.507852	 0.500000 
Ti67	 0.309984	 0.689249	 0.000000 
Ti68	 0.284102	 0.785842	 0.500000 
Ti69	 0.328095	 0.797630	 0.000000 
Ti70	 0.353977	 0.701037	 0.500000 
Ti71	 0.258220	 0.882434	 0.000000 
Ti72	 0.491157	 0.013101	 0.500000 
Ti73	 0.535150	 0.024889	 0.000000 
Ti74	 0.302213	 0.894222	 0.500000 
Ti75	 0.553261	 0.133269	 0.000000 
Ti76	 0.527379	 0.229862	 0.500000 
Ti77	 0.571372	 0.241650	 0.000000 
Ti78	 0.597254	 0.145057	 0.500000 
Ti79	 0.501497	 0.326454	 0.000000 
Ti80	 0.475615	 0.423047	 0.500000 
Ti81	 0.519608	 0.434835	 0.000000 
Ti82	 0.545490	 0.338242	 0.500000 
Ti83	 0.449733	 0.519640	 0.000000 
Ti84	 0.423852	 0.616232	 0.500000 
Ti85	 0.467845	 0.628020	 0.000000 
Ti86	 0.493726	 0.531428	 0.500000 
Ti87	 0.397970	 0.712825	 0.000000 
Ti88	 0.372088	 0.809417	 0.500000 
Ti89	 0.416081	 0.821205	 0.000000 
Ti90	 0.441963	 0.724613	 0.500000 
Ti91	 0.346206	 0.906010	 0.000000 
Ti92	 0.579143	 0.036677	 0.500000 
Ti93	 0.623136	 0.048465	 0.000000 
Ti94	 0.390199	 0.917798	 0.500000 
Ti95	 0.641247	 0.156845	 0.000000 
Ti96	 0.615365	 0.253438	 0.500000 
Ti97	 0.659358	 0.265226	 0.000000 
Ti98	 0.685240	 0.168633	 0.500000 
Ti99	 0.589483	 0.350030	 0.000000 
Ti100	 0.563601	 0.446623	 0.500000 
Ti101	 0.607594	 0.458411	 0.000000 
Ti102	 0.633476	 0.361818	 0.500000 
Ti103	 0.537719	 0.543215	 0.000000 
Ti104	 0.511837	 0.639808	 0.500000 
Ti105	 0.555830	 0.651596	 0.000000 
Ti106	 0.581712	 0.555003	 0.500000 
Ti107	 0.485956	 0.736401	 0.000000 
Ti108	 0.460074	 0.832993	 0.500000 
Ti109	 0.504067	 0.844781	 0.000000 
Ti110	 0.529948	 0.748188	 0.500000 
Ti111	 0.434192	 0.929586	 0.000000 
Ti112	 0.667129	 0.060252	 0.500000 
Ti113	 0.711122	 0.072040	 0.000000 
Ti114	 0.478185	 0.941374	 0.500000 
Ti115	 0.729233	 0.180421	 0.000000 
Ti116	 0.703351	 0.277013	 0.500000 
Ti117	 0.747344	 0.288801	 0.000000 
Ti118	 0.773226	 0.192209	 0.500000 
Ti119	 0.677469	 0.373606	 0.000000 
Ti120	 0.651587	 0.470199	 0.500000 
Ti121	 0.695580	 0.481986	 0.000000 
Ti122	 0.721462	 0.385394	 0.500000 
Ti123	 0.625705	 0.566791	 0.000000 
Ti124	 0.599823	 0.663384	 0.500000 
Ti125	 0.643816	 0.675172	 0.000000 
Ti126	 0.669698	 0.578579	 0.500000 
Ti127	 0.573941	 0.759976	 0.000000 
Ti128	 0.548059	 0.856569	 0.500000 
Ti129	 0.592052	 0.868357	 0.000000 
Ti130	 0.617934	 0.771764	 0.500000 
Ti131	 0.522178	 0.953161	 0.000000 
Ti132	 0.755115	 0.083828	 0.500000 
Ti133	 0.799108	 0.095616	 0.000000 
Ti134	 0.566170	 0.964949	 0.500000 
Ti135	 0.817219	 0.203997	 0.000000 
Ti136	 0.791337	 0.300589	 0.500000 
Ti137	 0.835330	 0.312377	 0.000000 
Ti138	 0.861212	 0.215784	 0.500000 
Ti139	 0.765455	 0.397182	 0.000000 
Ti140	 0.739573	 0.493774	 0.500000 
Ti141	 0.783566	 0.505562	 0.000000 
Ti142	 0.809448	 0.408970	 0.500000 
Ti143	 0.713691	 0.590367	 0.000000 
Ti144	 0.687809	 0.686959	 0.500000 
Ti145	 0.731802	 0.698747	 0.000000 
Ti146	 0.757684	 0.602155	 0.500000 
Ti147	 0.661927	 0.783552	 0.000000 
Ti148	 0.636045	 0.880145	 0.500000 
Ti149	 0.680038	 0.891932	 0.000000 
Ti150	 0.705920	 0.795340	 0.500000 
Ti151	 0.610163	 0.976737	 0.000000 
Ti152	 0.843101	 0.107404	 0.500000 
Ti153	 0.887093	 0.119192	 0.000000 
Ti154	 0.654156	 0.988525	 0.500000 
Ti155	 0.905204	 0.227572	 0.000000 
Ti156	 0.879323	 0.324165	 0.500000 
Ti157	 0.923315	 0.335953	 0.000000 
Ti158	 0.949197	 0.239360	 0.500000 
Ti159	 0.853441	 0.420757	 0.000000 
Ti160	 0.827559	 0.517350	 0.500000 
Ti161	 0.871552	 0.529138	 0.000000 
Ti162	 0.897434	 0.432545	 0.500000 
Ti163	 0.801677	 0.613943	 0.000000 
Ti164	 0.775795	 0.710535	 0.500000 
Ti165	 0.819788	 0.722323	 0.000000 
Ti166	 0.845670	 0.625730	 0.500000 
Ti167	 0.749913	 0.807128	 0.000000 
Ti168	 0.724031	 0.903720	 0.500000 
Ti169	 0.768024	 0.915508	 0.000000 
Ti170	 0.793906	 0.818916	 0.500000 
Ti171	 0.931086	 0.130980	 0.500000 
Ti172	 0.975079	 0.142768	 0.000000 
Ti173	 0.993190	 0.251148	 0.000000 
Ti174	 0.967308	 0.347741	 0.500000 
Ti175	 0.131443	 0.123771	 0.000000 
Ti176	 0.157325	 0.027179	 0.500000 
Ti177	 0.941426	 0.444333	 0.000000 
Ti178	 0.915545	 0.540926	 0.500000 
Ti179	 0.079679	 0.316956	 0.000000 
Ti180	 0.105561	 0.220364	 0.500000 
Ti181	 0.889663	 0.637518	 0.000000 
Ti182	 0.863781	 0.734111	 0.500000 
Ti183	 0.027915	 0.510141	 0.000000 
Ti184	 0.053797	 0.413549	 0.500000 
Ti185	 0.837899	 0.830703	 0.000000 
Ti186	 0.812017	 0.927296	 0.500000 
Ti187	 0.002033	 0.606734	 0.500000 
#                 ---end-of-data-block---
