data_Pt structure along [001] nx 5 ny 8 nz 1
_cell_length_a               31.240000
_cell_length_b               31.240000
_cell_length_c               5.543717
_cell_angle_alpha          90.000000
_cell_angle_beta           90.000000
_cell_angle_gamma          90.000000
_symmetry_cell_setting          Triclinic
_symmetry_space_group_name_H-M 'P 1' 
loop_
_atom_site_label
_atom_site_fract_x
_atom_site_fract_y
_atom_site_fract_z
Ti1	 0.838727	 0.164305	 0.000000 
Sr2	 0.901227	 0.252693	 0.000000 
Ti3	 0.838727	 0.252693	 0.500000 
Sr4	 0.901227	 0.164305	 0.500000 
Ti5	 0.713727	 0.164305	 0.000000 
Sr6	 0.776227	 0.252693	 0.000000 
Ti7	 0.713727	 0.252693	 0.500000 
Sr8	 0.776227	 0.164305	 0.500000 
Ti9	 0.588727	 0.164305	 0.000000 
Sr10	 0.651227	 0.252693	 0.000000 
Ti11	 0.588727	 0.252693	 0.500000 
Sr12	 0.651227	 0.164305	 0.500000 
Ti13	 0.463727	 0.164305	 0.000000 
Sr14	 0.526227	 0.252693	 0.000000 
Ti15	 0.463727	 0.252693	 0.500000 
Sr16	 0.526227	 0.164305	 0.500000 
Ti17	 0.338727	 0.164305	 0.000000 
Sr18	 0.401227	 0.252693	 0.000000 
Ti19	 0.338727	 0.252693	 0.500000 
Sr20	 0.401227	 0.164305	 0.500000 
Ti21	 0.213727	 0.164305	 0.000000 
Sr22	 0.276227	 0.252693	 0.000000 
Ti23	 0.213727	 0.252693	 0.500000 
Sr24	 0.276227	 0.164305	 0.500000 
Ti25	 0.088727	 0.164305	 0.000000 
Sr26	 0.151227	 0.252693	 0.000000 
Ti27	 0.088727	 0.252693	 0.500000 
Sr28	 0.151227	 0.164305	 0.500000 
Ti29	 0.963727	 0.164305	 0.000000 
Sr30	 0.026227	 0.252693	 0.000000 
Ti31	 0.963727	 0.252693	 0.500000 
Sr32	 0.026227	 0.164305	 0.500000 
Ti33	 0.838727	 0.341082	 0.000000 
Sr34	 0.901227	 0.429470	 0.000000 
Ti35	 0.838727	 0.429470	 0.500000 
Sr36	 0.901227	 0.341082	 0.500000 
Ti37	 0.713727	 0.341082	 0.000000 
Sr38	 0.776227	 0.429470	 0.000000 
Ti39	 0.713727	 0.429470	 0.500000 
Sr40	 0.776227	 0.341082	 0.500000 
Ti41	 0.588727	 0.341082	 0.000000 
Sr42	 0.651227	 0.429470	 0.000000 
Ti43	 0.588727	 0.429470	 0.500000 
Sr44	 0.651227	 0.341082	 0.500000 
Ti45	 0.463727	 0.341082	 0.000000 
Sr46	 0.526227	 0.429470	 0.000000 
Ti47	 0.463727	 0.429470	 0.500000 
Sr48	 0.526227	 0.341082	 0.500000 
Ti49	 0.338727	 0.341082	 0.000000 
Sr50	 0.401227	 0.429470	 0.000000 
Ti51	 0.338727	 0.429470	 0.500000 
Sr52	 0.401227	 0.341082	 0.500000 
Ti53	 0.213727	 0.341082	 0.000000 
Sr54	 0.276227	 0.429470	 0.000000 
Ti55	 0.213727	 0.429470	 0.500000 
Sr56	 0.276227	 0.341082	 0.500000 
Ti57	 0.088727	 0.341082	 0.000000 
Sr58	 0.151227	 0.429470	 0.000000 
Ti59	 0.088727	 0.429470	 0.500000 
Sr60	 0.151227	 0.341082	 0.500000 
Ti61	 0.963727	 0.341082	 0.000000 
Sr62	 0.026227	 0.429470	 0.000000 
Ti63	 0.963727	 0.429470	 0.500000 
Sr64	 0.026227	 0.341082	 0.500000 
Ti65	 0.838727	 0.517859	 0.000000 
Sr66	 0.901227	 0.606247	 0.000000 
Ti67	 0.838727	 0.606247	 0.500000 
Sr68	 0.901227	 0.517859	 0.500000 
Ti69	 0.713727	 0.517859	 0.000000 
Sr70	 0.776227	 0.606247	 0.000000 
Ti71	 0.713727	 0.606247	 0.500000 
Sr72	 0.776227	 0.517859	 0.500000 
Ti73	 0.588727	 0.517859	 0.000000 
Sr74	 0.651227	 0.606247	 0.000000 
Ti75	 0.588727	 0.606247	 0.500000 
Sr76	 0.651227	 0.517859	 0.500000 
Ti77	 0.463727	 0.517859	 0.000000 
Sr78	 0.526227	 0.606247	 0.000000 
Ti79	 0.463727	 0.606247	 0.500000 
Sr80	 0.526227	 0.517859	 0.500000 
Ti81	 0.338727	 0.517859	 0.000000 
Sr82	 0.401227	 0.606247	 0.000000 
Ti83	 0.338727	 0.606247	 0.500000 
Sr84	 0.401227	 0.517859	 0.500000 
Ti85	 0.213727	 0.517859	 0.000000 
Sr86	 0.276227	 0.606247	 0.000000 
Ti87	 0.213727	 0.606247	 0.500000 
Sr88	 0.276227	 0.517859	 0.500000 
Ti89	 0.088727	 0.517859	 0.000000 
Sr90	 0.151227	 0.606247	 0.000000 
Ti91	 0.088727	 0.606247	 0.500000 
Sr92	 0.151227	 0.517859	 0.500000 
Ti93	 0.963727	 0.517859	 0.000000 
Sr94	 0.026227	 0.606247	 0.000000 
Ti95	 0.963727	 0.606247	 0.500000 
Sr96	 0.026227	 0.517859	 0.500000 
Ti97	 0.838727	 0.694635	 0.000000 
Sr98	 0.901227	 0.783024	 0.000000 
Ti99	 0.838727	 0.783024	 0.500000 
Sr100	 0.901227	 0.694635	 0.500000 
Ti101	 0.713727	 0.694635	 0.000000 
Sr102	 0.776227	 0.783024	 0.000000 
Ti103	 0.713727	 0.783024	 0.500000 
Sr104	 0.776227	 0.694635	 0.500000 
Ti105	 0.588727	 0.694635	 0.000000 
Sr106	 0.651227	 0.783024	 0.000000 
Ti107	 0.588727	 0.783024	 0.500000 
Sr108	 0.651227	 0.694635	 0.500000 
Ti109	 0.463727	 0.694635	 0.000000 
Sr110	 0.526227	 0.783024	 0.000000 
Ti111	 0.463727	 0.783024	 0.500000 
Sr112	 0.526227	 0.694635	 0.500000 
Ti113	 0.338727	 0.694635	 0.000000 
Sr114	 0.401227	 0.783024	 0.000000 
Ti115	 0.338727	 0.783024	 0.500000 
Sr116	 0.401227	 0.694635	 0.500000 
Ti117	 0.213727	 0.694635	 0.000000 
Sr118	 0.276227	 0.783024	 0.000000 
Ti119	 0.213727	 0.783024	 0.500000 
Sr120	 0.276227	 0.694635	 0.500000 
Ti121	 0.088727	 0.694635	 0.000000 
Sr122	 0.151227	 0.783024	 0.000000 
Ti123	 0.088727	 0.783024	 0.500000 
Sr124	 0.151227	 0.694635	 0.500000 
Ti125	 0.963727	 0.694635	 0.000000 
Sr126	 0.026227	 0.783024	 0.000000 
Ti127	 0.963727	 0.783024	 0.500000 
Sr128	 0.026227	 0.694635	 0.500000 
Ti129	 0.838727	 0.871412	 0.000000 
Sr130	 0.901227	 0.075917	 0.000000 
Ti131	 0.838727	 0.075917	 0.500000 
Sr132	 0.901227	 0.871412	 0.500000 
Ti133	 0.713727	 0.871412	 0.000000 
Sr134	 0.776227	 0.075917	 0.000000 
Ti135	 0.713727	 0.075917	 0.500000 
Sr136	 0.776227	 0.871412	 0.500000 
Ti137	 0.588727	 0.871412	 0.000000 
Sr138	 0.651227	 0.075917	 0.000000 
Ti139	 0.588727	 0.075917	 0.500000 
Sr140	 0.651227	 0.871412	 0.500000 
Ti141	 0.463727	 0.871412	 0.000000 
Sr142	 0.526227	 0.075917	 0.000000 
Ti143	 0.463727	 0.075917	 0.500000 
Sr144	 0.526227	 0.871412	 0.500000 
Ti145	 0.338727	 0.871412	 0.000000 
Sr146	 0.401227	 0.075917	 0.000000 
Ti147	 0.338727	 0.075917	 0.500000 
Sr148	 0.401227	 0.871412	 0.500000 
Ti149	 0.213727	 0.871412	 0.000000 
Sr150	 0.276227	 0.075917	 0.000000 
Ti151	 0.213727	 0.075917	 0.500000 
Sr152	 0.276227	 0.871412	 0.500000 
Ti153	 0.088727	 0.871412	 0.000000 
Sr154	 0.151227	 0.075917	 0.000000 
Ti155	 0.088727	 0.075917	 0.500000 
Sr156	 0.151227	 0.871412	 0.500000 
Ti157	 0.963727	 0.871412	 0.000000 
Sr158	 0.026227	 0.075917	 0.000000 
Ti159	 0.963727	 0.075917	 0.500000 
Sr160	 0.026227	 0.871412	 0.500000 
#                 ---end-of-data-block---
