data_NiO [110] nx 6 ny 2 nz 1
_cell_length_a               30.187800
_cell_length_b               30.187800
_cell_length_c               2.866200
_cell_angle_alpha          90.000000
_cell_angle_beta           90.000000
_cell_angle_gamma          90.000000
_symmetry_cell_setting          Triclinic
_symmetry_space_group_name_H-M 'P 1' 
loop_
_atom_site_label
_atom_site_fract_x
_atom_site_fract_y
_atom_site_fract_z
Mn1	 0.264757	 0.308323	 0.000000 
Mn2	 0.270780	 0.390325	 0.500000 
Mn3	 0.115817	 0.429191	 0.000000 
Mn4	 0.127866	 0.593200	 0.000000 
Mn5	 0.121841	 0.511198	 0.500000 
Mn6	 0.133890	 0.675202	 0.500000 
Mn7	 0.144177	 0.758332	 0.000000 
Mn8	 0.150200	 0.840334	 0.500000 
Mn9	 0.248445	 0.143191	 0.000000 
Mn10	 0.242420	 0.061189	 0.500000 
Mn11	 0.254470	 0.225193	 0.500000 
Mn12	 0.425744	 0.351460	 0.000000 
Mn13	 0.431767	 0.433462	 0.500000 
Mn14	 0.276805	 0.472327	 0.000000 
Mn15	 0.288853	 0.636337	 0.000000 
Mn16	 0.282828	 0.554334	 0.500000 
Mn17	 0.294878	 0.718339	 0.500000 
Mn18	 0.305165	 0.801469	 0.000000 
Mn19	 0.311188	 0.883471	 0.500000 
Mn20	 0.397384	 0.022318	 0.000000 
Mn21	 0.409433	 0.186328	 0.000000 
Mn22	 0.403408	 0.104325	 0.500000 
Mn23	 0.415458	 0.268330	 0.500000 
Mn24	 0.586732	 0.394596	 0.000000 
Mn25	 0.592755	 0.476598	 0.500000 
Mn26	 0.437792	 0.515464	 0.000000 
Mn27	 0.449841	 0.679473	 0.000000 
Mn28	 0.443816	 0.597471	 0.500000 
Mn29	 0.455866	 0.761475	 0.500000 
Mn30	 0.466152	 0.844605	 0.000000 
Mn31	 0.472176	 0.926607	 0.500000 
Mn32	 0.558372	 0.065455	 0.000000 
Mn33	 0.570420	 0.229464	 0.000000 
Mn34	 0.564396	 0.147462	 0.500000 
Mn35	 0.576445	 0.311466	 0.500000 
Mn36	 0.747719	 0.437733	 0.000000 
Mn37	 0.753743	 0.519735	 0.500000 
Mn38	 0.598780	 0.558600	 0.000000 
Mn39	 0.610828	 0.722610	 0.000000 
Mn40	 0.604804	 0.640607	 0.500000 
Mn41	 0.616853	 0.804612	 0.500000 
Mn42	 0.627140	 0.887742	 0.000000 
Mn43	 0.633163	 0.969744	 0.500000 
Mn44	 0.719359	 0.108592	 0.000000 
Mn45	 0.731408	 0.272601	 0.000000 
Mn46	 0.725383	 0.190598	 0.500000 
Mn47	 0.737433	 0.354603	 0.500000 
Mn48	 0.908707	 0.480869	 0.000000 
Mn49	 0.914730	 0.562871	 0.500000 
Mn50	 0.759768	 0.601737	 0.000000 
Mn51	 0.771816	 0.765746	 0.000000 
Mn52	 0.765791	 0.683744	 0.500000 
Mn53	 0.777841	 0.847748	 0.500000 
Mn54	 0.788128	 0.930878	 0.000000 
Mn55	 0.880347	 0.151728	 0.000000 
Mn56	 0.892396	 0.315737	 0.000000 
Mn57	 0.886371	 0.233735	 0.500000 
Mn58	 0.898421	 0.397739	 0.500000 
Mn59	 0.103769	 0.265187	 0.000000 
Mn60	 0.109792	 0.347189	 0.500000 
Mn61	 0.920755	 0.644873	 0.000000 
Mn62	 0.932804	 0.808883	 0.000000 
Mn63	 0.926779	 0.726880	 0.500000 
Mn64	 0.093482	 0.182057	 0.500000 
#                 ---end-of-data-block---
