data_TiO2_rutile [001] nx 7 ny 7 nz 1
_cell_length_a               32.158000
_cell_length_b               32.158000
_cell_length_c               2.959000
_cell_angle_alpha          90.000000
_cell_angle_beta           90.000000
_cell_angle_gamma          90.000000
_symmetry_cell_setting          Triclinic
_symmetry_space_group_name_H-M 'P 1' 
loop_
_atom_site_label
_atom_site_fract_x
_atom_site_fract_y
_atom_site_fract_z
Ti1	 0.398514	 0.091957	 0.500000 
Ti2	 0.297499	 0.091957	 0.000000 
Ti3	 0.297499	 0.192972	 0.500000 
Ti4	 0.196484	 0.192972	 0.000000 
Ti5	 0.196484	 0.293987	 0.500000 
Ti6	 0.095469	 0.293987	 0.000000 
Ti7	 0.095469	 0.395003	 0.500000 
Ti8	 0.600545	 0.091957	 0.500000 
Ti9	 0.499530	 0.091957	 0.000000 
Ti10	 0.499530	 0.192972	 0.500000 
Ti11	 0.398514	 0.192972	 0.000000 
Ti12	 0.398514	 0.293987	 0.500000 
Ti13	 0.297499	 0.293987	 0.000000 
Ti14	 0.297499	 0.395003	 0.500000 
Ti15	 0.196484	 0.395003	 0.000000 
Ti16	 0.196484	 0.496018	 0.500000 
Ti17	 0.095469	 0.496018	 0.000000 
Ti18	 0.095469	 0.597033	 0.500000 
Ti19	 0.701560	 0.091957	 0.000000 
Ti20	 0.701560	 0.192972	 0.500000 
Ti21	 0.600545	 0.192972	 0.000000 
Ti22	 0.600545	 0.293987	 0.500000 
Ti23	 0.499530	 0.293987	 0.000000 
Ti24	 0.499530	 0.395003	 0.500000 
Ti25	 0.398514	 0.395003	 0.000000 
Ti26	 0.398514	 0.496018	 0.500000 
Ti27	 0.297499	 0.496018	 0.000000 
Ti28	 0.297499	 0.597033	 0.500000 
Ti29	 0.196484	 0.597033	 0.000000 
Ti30	 0.196484	 0.698048	 0.500000 
Ti31	 0.095469	 0.698048	 0.000000 
Ti32	 0.095469	 0.799064	 0.500000 
Ti33	 0.802575	 0.192972	 0.000000 
Ti34	 0.802575	 0.293987	 0.500000 
Ti35	 0.701560	 0.293987	 0.000000 
Ti36	 0.701560	 0.395003	 0.500000 
Ti37	 0.600545	 0.395003	 0.000000 
Ti38	 0.600545	 0.496018	 0.500000 
Ti39	 0.499530	 0.496018	 0.000000 
Ti40	 0.499530	 0.597033	 0.500000 
Ti41	 0.398514	 0.597033	 0.000000 
Ti42	 0.398514	 0.698048	 0.500000 
Ti43	 0.297499	 0.698048	 0.000000 
Ti44	 0.297499	 0.799064	 0.500000 
Ti45	 0.196484	 0.799064	 0.000000 
Ti46	 0.196484	 0.900079	 0.500000 
Ti47	 0.903591	 0.293987	 0.000000 
Ti48	 0.903591	 0.395003	 0.500000 
Ti49	 0.802575	 0.395003	 0.000000 
Ti50	 0.802575	 0.496018	 0.500000 
Ti51	 0.701560	 0.496018	 0.000000 
Ti52	 0.701560	 0.597033	 0.500000 
Ti53	 0.600545	 0.597033	 0.000000 
Ti54	 0.600545	 0.698048	 0.500000 
Ti55	 0.499530	 0.698048	 0.000000 
Ti56	 0.499530	 0.799064	 0.500000 
Ti57	 0.398514	 0.799064	 0.000000 
Ti58	 0.398514	 0.900079	 0.500000 
Ti59	 0.297499	 0.900079	 0.000000 
Ti60	 0.903591	 0.496018	 0.000000 
Ti61	 0.903591	 0.597033	 0.500000 
Ti62	 0.802575	 0.597033	 0.000000 
Ti63	 0.802575	 0.698048	 0.500000 
Ti64	 0.701560	 0.698048	 0.000000 
Ti65	 0.701560	 0.799064	 0.500000 
Ti66	 0.600545	 0.799064	 0.000000 
Ti67	 0.600545	 0.900079	 0.500000 
Ti68	 0.499530	 0.900079	 0.000000 
Ti69	 0.903591	 0.698048	 0.000000 
Ti70	 0.903591	 0.799064	 0.500000 
Ti71	 0.802575	 0.799064	 0.000000 
Ti72	 0.802575	 0.900079	 0.500000 
Ti73	 0.701560	 0.900079	 0.000000 
#                 ---end-of-data-block---
