data_Pt structure along [001] nx 11 ny 8 nz 1
_cell_length_a               31.360000
_cell_length_b               31.360000
_cell_length_c               2.771859
_cell_angle_alpha          90.000000
_cell_angle_beta           90.000000
_cell_angle_gamma          90.000000
_symmetry_cell_setting          Triclinic
_symmetry_space_group_name_H-M 'P 1' 
loop_
_atom_site_label
_atom_site_fract_x
_atom_site_fract_y
_atom_site_fract_z
Co1	 0.442570	 0.055063	 0.500000 
Co2	 0.366346	 0.048040	 0.000000 
Co3	 0.334317	 0.117563	 0.500000 
Co4	 0.258093	 0.110540	 0.000000 
Co5	 0.226063	 0.180063	 0.500000 
Co6	 0.149840	 0.173040	 0.000000 
Co7	 0.117810	 0.242563	 0.500000 
Co8	 0.041587	 0.235540	 0.000000 
Co9	 0.009557	 0.305063	 0.500000 
Co10	 0.703270	 0.006610	 0.500000 
Co11	 0.595017	 0.069110	 0.500000 
Co12	 0.518793	 0.062086	 0.000000 
Co13	 0.486764	 0.131610	 0.500000 
Co14	 0.410540	 0.124586	 0.000000 
Co15	 0.378511	 0.194110	 0.500000 
Co16	 0.302287	 0.187086	 0.000000 
Co17	 0.270258	 0.256610	 0.500000 
Co18	 0.194034	 0.249586	 0.000000 
Co19	 0.162004	 0.319110	 0.500000 
Co20	 0.085781	 0.312086	 0.000000 
Co21	 0.053751	 0.381610	 0.500000 
Co22	 0.779494	 0.013633	 0.000000 
Co23	 0.747464	 0.083156	 0.500000 
Co24	 0.671241	 0.076133	 0.000000 
Co25	 0.639211	 0.145656	 0.500000 
Co26	 0.562988	 0.138633	 0.000000 
Co27	 0.530958	 0.208156	 0.500000 
Co28	 0.454734	 0.201133	 0.000000 
Co29	 0.422705	 0.270656	 0.500000 
Co30	 0.346481	 0.263633	 0.000000 
Co31	 0.314452	 0.333156	 0.500000 
Co32	 0.238228	 0.326133	 0.000000 
Co33	 0.206199	 0.395656	 0.500000 
Co34	 0.129975	 0.388633	 0.000000 
Co35	 0.097945	 0.458156	 0.500000 
Co36	 0.021722	 0.451133	 0.000000 
Co37	 0.823688	 0.090179	 0.000000 
Co38	 0.791659	 0.159703	 0.500000 
Co39	 0.715435	 0.152679	 0.000000 
Co40	 0.683405	 0.222203	 0.500000 
Co41	 0.607182	 0.215179	 0.000000 
Co42	 0.575152	 0.284703	 0.500000 
Co43	 0.498929	 0.277679	 0.000000 
Co44	 0.466899	 0.347203	 0.500000 
Co45	 0.390675	 0.340179	 0.000000 
Co46	 0.358646	 0.409703	 0.500000 
Co47	 0.282422	 0.402679	 0.000000 
Co48	 0.250393	 0.472203	 0.500000 
Co49	 0.174169	 0.465179	 0.000000 
Co50	 0.142140	 0.534703	 0.500000 
Co51	 0.065916	 0.527679	 0.000000 
Co52	 0.033886	 0.597203	 0.500000 
Co53	 0.867882	 0.166726	 0.000000 
Co54	 0.835853	 0.236249	 0.500000 
Co55	 0.759629	 0.229226	 0.000000 
Co56	 0.727600	 0.298749	 0.500000 
Co57	 0.651376	 0.291726	 0.000000 
Co58	 0.619346	 0.361249	 0.500000 
Co59	 0.543123	 0.354226	 0.000000 
Co60	 0.511093	 0.423749	 0.500000 
Co61	 0.434870	 0.416726	 0.000000 
Co62	 0.402840	 0.486249	 0.500000 
Co63	 0.326616	 0.479226	 0.000000 
Co64	 0.294587	 0.548749	 0.500000 
Co65	 0.218363	 0.541726	 0.000000 
Co66	 0.186334	 0.611249	 0.500000 
Co67	 0.110110	 0.604226	 0.000000 
Co68	 0.078081	 0.673749	 0.500000 
Co69	 0.912076	 0.243273	 0.000000 
Co70	 0.880047	 0.312796	 0.500000 
Co71	 0.803823	 0.305773	 0.000000 
Co72	 0.771794	 0.375296	 0.500000 
Co73	 0.695570	 0.368273	 0.000000 
Co74	 0.663541	 0.437796	 0.500000 
Co75	 0.587317	 0.430773	 0.000000 
Co76	 0.555287	 0.500296	 0.500000 
Co77	 0.479064	 0.493273	 0.000000 
Co78	 0.447034	 0.562796	 0.500000 
Co79	 0.370811	 0.555773	 0.000000 
Co80	 0.338781	 0.625296	 0.500000 
Co81	 0.262557	 0.618273	 0.000000 
Co82	 0.230528	 0.687796	 0.500000 
Co83	 0.154304	 0.680773	 0.000000 
Co84	 0.122275	 0.750296	 0.500000 
Co85	 0.956271	 0.319819	 0.000000 
Co86	 0.924241	 0.389342	 0.500000 
Co87	 0.848017	 0.382319	 0.000000 
Co88	 0.815988	 0.451842	 0.500000 
Co89	 0.739764	 0.444819	 0.000000 
Co90	 0.707735	 0.514342	 0.500000 
Co91	 0.631511	 0.507319	 0.000000 
Co92	 0.599482	 0.576842	 0.500000 
Co93	 0.523258	 0.569819	 0.000000 
Co94	 0.491228	 0.639342	 0.500000 
Co95	 0.415005	 0.632319	 0.000000 
Co96	 0.382975	 0.701842	 0.500000 
Co97	 0.306752	 0.694819	 0.000000 
Co98	 0.274722	 0.764342	 0.500000 
Co99	 0.198498	 0.757319	 0.000000 
Co100	 0.166469	 0.826842	 0.500000 
Co101	 0.968435	 0.465889	 0.500000 
Co102	 0.892212	 0.458866	 0.000000 
Co103	 0.860182	 0.528389	 0.500000 
Co104	 0.783958	 0.521366	 0.000000 
Co105	 0.751929	 0.590889	 0.500000 
Co106	 0.675705	 0.583866	 0.000000 
Co107	 0.643676	 0.653389	 0.500000 
Co108	 0.567452	 0.646366	 0.000000 
Co109	 0.535423	 0.715889	 0.500000 
Co110	 0.459199	 0.708866	 0.000000 
Co111	 0.427169	 0.778389	 0.500000 
Co112	 0.350946	 0.771366	 0.000000 
Co113	 0.318916	 0.840889	 0.500000 
Co114	 0.242693	 0.833866	 0.000000 
Co115	 0.210663	 0.903389	 0.500000 
Co116	 0.936406	 0.535412	 0.000000 
Co117	 0.904376	 0.604935	 0.500000 
Co118	 0.828153	 0.597912	 0.000000 
Co119	 0.796123	 0.667435	 0.500000 
Co120	 0.719899	 0.660412	 0.000000 
Co121	 0.687870	 0.729935	 0.500000 
Co122	 0.611646	 0.722912	 0.000000 
Co123	 0.579617	 0.792435	 0.500000 
Co124	 0.503393	 0.785412	 0.000000 
Co125	 0.471364	 0.854935	 0.500000 
Co126	 0.395140	 0.847912	 0.000000 
Co127	 0.363110	 0.917435	 0.500000 
Co128	 0.286887	 0.910412	 0.000000 
Co129	 0.254857	 0.979935	 0.500000 
Co130	 0.980600	 0.611959	 0.000000 
Co131	 0.948570	 0.681482	 0.500000 
Co132	 0.872347	 0.674459	 0.000000 
Co133	 0.840317	 0.743982	 0.500000 
Co134	 0.764094	 0.736959	 0.000000 
Co135	 0.732064	 0.806482	 0.500000 
Co136	 0.655840	 0.799459	 0.000000 
Co137	 0.623811	 0.868982	 0.500000 
Co138	 0.547587	 0.861959	 0.000000 
Co139	 0.515558	 0.931482	 0.500000 
Co140	 0.439334	 0.924459	 0.000000 
Co141	 0.407305	 0.993982	 0.500000 
Co142	 0.331081	 0.986959	 0.000000 
Co143	 0.992765	 0.758029	 0.500000 
Co144	 0.916541	 0.751005	 0.000000 
Co145	 0.884511	 0.820529	 0.500000 
Co146	 0.808288	 0.813505	 0.000000 
Co147	 0.776258	 0.883029	 0.500000 
Co148	 0.700035	 0.876005	 0.000000 
Co149	 0.668005	 0.945529	 0.500000 
Co150	 0.591781	 0.938505	 0.000000 
#                 ---end-of-data-block---
