data_NiO [110] nx 6 ny 4 nz 1
_cell_length_a               30.735000
_cell_length_b               30.735000
_cell_length_c               2.957500
_cell_angle_alpha          90.000000
_cell_angle_beta           90.000000
_cell_angle_gamma          90.000000
_symmetry_cell_setting          Triclinic
_symmetry_space_group_name_H-M 'P 1' 
loop_
_atom_site_label
_atom_site_fract_x
_atom_site_fract_y
_atom_site_fract_z
Ni1	 0.263407	 0.206709	 1.000000 
Ni2	 0.207850	 0.285277	 0.000000 
Ni3	 0.318962	 0.363845	 0.000000 
Ni4	 0.235628	 0.363845	 0.500000 
Ni5	 0.180073	 0.206709	 0.500000 
Ni6	 0.291183	 0.285277	 0.500000 
Ni7	 0.263407	 0.442401	 1.000000 
Ni8	 0.207850	 0.520969	 0.000000 
Ni9	 0.318962	 0.599537	 0.000000 
Ni10	 0.235628	 0.599537	 0.500000 
Ni11	 0.180073	 0.442401	 0.500000 
Ni12	 0.291183	 0.520969	 0.500000 
Ni13	 0.263407	 0.678093	 1.000000 
Ni14	 0.207850	 0.756661	 0.000000 
Ni15	 0.318962	 0.835229	 0.000000 
Ni16	 0.235628	 0.835229	 0.500000 
Ni17	 0.180073	 0.678093	 0.500000 
Ni18	 0.291183	 0.756661	 0.500000 
Ni19	 0.263407	 0.913786	 1.000000 
Ni20	 0.207850	 0.049585	 0.000000 
Ni21	 0.318962	 0.128153	 0.000000 
Ni22	 0.235628	 0.128153	 0.500000 
Ni23	 0.180073	 0.913786	 0.500000 
Ni24	 0.291183	 0.049585	 0.500000 
Ni25	 0.430073	 0.206709	 1.000000 
Ni26	 0.374517	 0.285277	 0.000000 
Ni27	 0.485628	 0.363845	 0.000000 
Ni28	 0.402295	 0.363845	 0.500000 
Ni29	 0.346740	 0.206709	 0.500000 
Ni30	 0.457850	 0.285277	 0.500000 
Ni31	 0.430073	 0.442401	 1.000000 
Ni32	 0.374517	 0.520969	 0.000000 
Ni33	 0.485628	 0.599537	 0.000000 
Ni34	 0.402295	 0.599537	 0.500000 
Ni35	 0.346740	 0.442401	 0.500000 
Ni36	 0.457850	 0.520969	 0.500000 
Ni37	 0.430073	 0.678093	 1.000000 
Ni38	 0.374517	 0.756661	 0.000000 
Ni39	 0.485628	 0.835229	 0.000000 
Ni40	 0.402295	 0.835229	 0.500000 
Ni41	 0.346740	 0.678093	 0.500000 
Ni42	 0.457850	 0.756661	 0.500000 
Ni43	 0.430073	 0.913786	 1.000000 
Ni44	 0.374517	 0.049585	 0.000000 
Ni45	 0.485628	 0.128153	 0.000000 
Ni46	 0.402295	 0.128153	 0.500000 
Ni47	 0.346740	 0.913786	 0.500000 
Ni48	 0.457850	 0.049585	 0.500000 
Ni49	 0.596740	 0.206709	 1.000000 
Ni50	 0.541183	 0.285277	 0.000000 
Ni51	 0.652295	 0.363845	 0.000000 
Ni52	 0.568962	 0.363845	 0.500000 
Ni53	 0.513407	 0.206709	 0.500000 
Ni54	 0.624517	 0.285277	 0.500000 
Ni55	 0.596740	 0.442401	 1.000000 
Ni56	 0.541183	 0.520969	 0.000000 
Ni57	 0.652295	 0.599537	 0.000000 
Ni58	 0.568962	 0.599537	 0.500000 
Ni59	 0.513407	 0.442401	 0.500000 
Ni60	 0.624517	 0.520969	 0.500000 
Ni61	 0.596740	 0.678093	 1.000000 
Ni62	 0.541183	 0.756661	 0.000000 
Ni63	 0.652295	 0.835229	 0.000000 
Ni64	 0.568962	 0.835229	 0.500000 
Ni65	 0.513407	 0.678093	 0.500000 
Ni66	 0.624517	 0.756661	 0.500000 
Ni67	 0.596740	 0.913786	 1.000000 
Ni68	 0.541183	 0.049585	 0.000000 
Ni69	 0.652295	 0.128153	 0.000000 
Ni70	 0.568962	 0.128153	 0.500000 
Ni71	 0.513407	 0.913786	 0.500000 
Ni72	 0.624517	 0.049585	 0.500000 
Ni73	 0.763407	 0.206709	 1.000000 
Ni74	 0.707850	 0.285277	 0.000000 
Ni75	 0.818962	 0.363845	 0.000000 
Ni76	 0.735628	 0.363845	 0.500000 
Ni77	 0.680073	 0.206709	 0.500000 
Ni78	 0.791183	 0.285277	 0.500000 
Ni79	 0.763407	 0.442401	 1.000000 
Ni80	 0.707850	 0.520969	 0.000000 
Ni81	 0.818962	 0.599537	 0.000000 
Ni82	 0.735628	 0.599537	 0.500000 
Ni83	 0.680073	 0.442401	 0.500000 
Ni84	 0.791183	 0.520969	 0.500000 
Ni85	 0.763407	 0.678093	 1.000000 
Ni86	 0.707850	 0.756661	 0.000000 
Ni87	 0.818962	 0.835229	 0.000000 
Ni88	 0.735628	 0.835229	 0.500000 
Ni89	 0.680073	 0.678093	 0.500000 
Ni90	 0.791183	 0.756661	 0.500000 
Ni91	 0.763407	 0.913786	 1.000000 
Ni92	 0.707850	 0.049585	 0.000000 
Ni93	 0.818962	 0.128153	 0.000000 
Ni94	 0.735628	 0.128153	 0.500000 
Ni95	 0.680073	 0.913786	 0.500000 
Ni96	 0.791183	 0.049585	 0.500000 
Ni97	 0.930073	 0.206709	 1.000000 
Ni98	 0.874517	 0.285277	 0.000000 
Ni99	 0.985628	 0.363845	 0.000000 
Ni100	 0.902295	 0.363845	 0.500000 
Ni101	 0.846740	 0.206709	 0.500000 
Ni102	 0.957850	 0.285277	 0.500000 
Ni103	 0.930073	 0.442401	 1.000000 
Ni104	 0.874517	 0.520969	 0.000000 
Ni105	 0.985628	 0.599537	 0.000000 
Ni106	 0.902295	 0.599537	 0.500000 
Ni107	 0.846740	 0.442401	 0.500000 
Ni108	 0.957850	 0.520969	 0.500000 
Ni109	 0.930073	 0.678093	 1.000000 
Ni110	 0.874517	 0.756661	 0.000000 
Ni111	 0.985628	 0.835229	 0.000000 
Ni112	 0.902295	 0.835229	 0.500000 
Ni113	 0.846740	 0.678093	 0.500000 
Ni114	 0.957850	 0.756661	 0.500000 
Ni115	 0.930073	 0.913786	 1.000000 
Ni116	 0.874517	 0.049585	 0.000000 
Ni117	 0.985628	 0.128153	 0.000000 
Ni118	 0.902295	 0.128153	 0.500000 
Ni119	 0.846740	 0.913786	 0.500000 
Ni120	 0.957850	 0.049585	 0.500000 
Ni121	 0.096740	 0.206709	 1.000000 
Ni122	 0.041183	 0.285277	 0.000000 
Ni123	 0.152295	 0.363845	 0.000000 
Ni124	 0.068962	 0.363845	 0.500000 
Ni125	 0.013407	 0.206709	 0.500000 
Ni126	 0.124517	 0.285277	 0.500000 
Ni127	 0.096740	 0.442401	 1.000000 
Ni128	 0.041183	 0.520969	 0.000000 
Ni129	 0.152295	 0.599537	 0.000000 
Ni130	 0.068962	 0.599537	 0.500000 
Ni131	 0.013407	 0.442401	 0.500000 
Ni132	 0.124517	 0.520969	 0.500000 
Ni133	 0.096740	 0.678093	 1.000000 
Ni134	 0.041183	 0.756661	 0.000000 
Ni135	 0.152295	 0.835229	 0.000000 
Ni136	 0.068962	 0.835229	 0.500000 
Ni137	 0.013407	 0.678093	 0.500000 
Ni138	 0.124517	 0.756661	 0.500000 
Ni139	 0.096740	 0.913786	 1.000000 
Ni140	 0.041183	 0.049585	 0.000000 
Ni141	 0.152295	 0.128153	 0.000000 
Ni142	 0.068962	 0.128153	 0.500000 
Ni143	 0.013407	 0.913786	 0.500000 
Ni144	 0.124517	 0.049585	 0.500000 
#                 ---end-of-data-block---
