data_TiO2_rutile [100] nx 10 ny 7 nz 1
_cell_length_a               32.158000
_cell_length_b               32.158000
_cell_length_c               4.594000
_cell_angle_alpha          90.000000
_cell_angle_beta           90.000000
_cell_angle_gamma          90.000000
_symmetry_cell_setting          Triclinic
_symmetry_space_group_name_H-M 'P 1' 
loop_
_atom_site_label
_atom_site_fract_x
_atom_site_fract_y
_atom_site_fract_z
Ti1	 0.732573	 0.078350	 0.000000 
Ti2	 0.804001	 0.124357	 0.500000 
Ti3	 0.589716	 0.078350	 0.000000 
Ti4	 0.661144	 0.124357	 0.500000 
Ti5	 0.446859	 0.078350	 0.000000 
Ti6	 0.518287	 0.124357	 0.500000 
Ti7	 0.304001	 0.078350	 0.000000 
Ti8	 0.375430	 0.124357	 0.500000 
Ti9	 0.161144	 0.078350	 0.000000 
Ti10	 0.232573	 0.124357	 0.500000 
Ti11	 0.018287	 0.078350	 0.000000 
Ti12	 0.089716	 0.124357	 0.500000 
Ti13	 0.875430	 0.078350	 0.000000 
Ti14	 0.946859	 0.124357	 0.500000 
Ti15	 0.732573	 0.170364	 0.000000 
Ti16	 0.804001	 0.216371	 0.500000 
Ti17	 0.589716	 0.170364	 0.000000 
Ti18	 0.661144	 0.216371	 0.500000 
Ti19	 0.446859	 0.170364	 0.000000 
Ti20	 0.518287	 0.216371	 0.500000 
Ti21	 0.304001	 0.170364	 0.000000 
Ti22	 0.375430	 0.216371	 0.500000 
Ti23	 0.161144	 0.170364	 0.000000 
Ti24	 0.232573	 0.216371	 0.500000 
Ti25	 0.018287	 0.170364	 0.000000 
Ti26	 0.089716	 0.216371	 0.500000 
Ti27	 0.875430	 0.170364	 0.000000 
Ti28	 0.946859	 0.216371	 0.500000 
Ti29	 0.732573	 0.262378	 0.000000 
Ti30	 0.804001	 0.308386	 0.500000 
Ti31	 0.589716	 0.262378	 0.000000 
Ti32	 0.661144	 0.308386	 0.500000 
Ti33	 0.446859	 0.262378	 0.000000 
Ti34	 0.518287	 0.308386	 0.500000 
Ti35	 0.304001	 0.262378	 0.000000 
Ti36	 0.375430	 0.308386	 0.500000 
Ti37	 0.161144	 0.262378	 0.000000 
Ti38	 0.232573	 0.308386	 0.500000 
Ti39	 0.018287	 0.262378	 0.000000 
Ti40	 0.089716	 0.308386	 0.500000 
Ti41	 0.875430	 0.262378	 0.000000 
Ti42	 0.946859	 0.308386	 0.500000 
Ti43	 0.732573	 0.354393	 0.000000 
Ti44	 0.804001	 0.400400	 0.500000 
Ti45	 0.589716	 0.354393	 0.000000 
Ti46	 0.661144	 0.400400	 0.500000 
Ti47	 0.446859	 0.354393	 0.000000 
Ti48	 0.518287	 0.400400	 0.500000 
Ti49	 0.304001	 0.354393	 0.000000 
Ti50	 0.375430	 0.400400	 0.500000 
Ti51	 0.161144	 0.354393	 0.000000 
Ti52	 0.232573	 0.400400	 0.500000 
Ti53	 0.018287	 0.354393	 0.000000 
Ti54	 0.089716	 0.400400	 0.500000 
Ti55	 0.875430	 0.354393	 0.000000 
Ti56	 0.946859	 0.400400	 0.500000 
Ti57	 0.732573	 0.446407	 0.000000 
Ti58	 0.804001	 0.492415	 0.500000 
Ti59	 0.589716	 0.446407	 0.000000 
Ti60	 0.661144	 0.492415	 0.500000 
Ti61	 0.446859	 0.446407	 0.000000 
Ti62	 0.518287	 0.492415	 0.500000 
Ti63	 0.304001	 0.446407	 0.000000 
Ti64	 0.375430	 0.492415	 0.500000 
Ti65	 0.161144	 0.446407	 0.000000 
Ti66	 0.232573	 0.492415	 0.500000 
Ti67	 0.018287	 0.446407	 0.000000 
Ti68	 0.089716	 0.492415	 0.500000 
Ti69	 0.875430	 0.446407	 0.000000 
Ti70	 0.946859	 0.492415	 0.500000 
Ti71	 0.732573	 0.538422	 0.000000 
Ti72	 0.804001	 0.584429	 0.500000 
Ti73	 0.589716	 0.538422	 0.000000 
Ti74	 0.661144	 0.584429	 0.500000 
Ti75	 0.446859	 0.538422	 0.000000 
Ti76	 0.518287	 0.584429	 0.500000 
Ti77	 0.304001	 0.538422	 0.000000 
Ti78	 0.375430	 0.584429	 0.500000 
Ti79	 0.161144	 0.538422	 0.000000 
Ti80	 0.232573	 0.584429	 0.500000 
Ti81	 0.018287	 0.538422	 0.000000 
Ti82	 0.089716	 0.584429	 0.500000 
Ti83	 0.875430	 0.538422	 0.000000 
Ti84	 0.946859	 0.584429	 0.500000 
Ti85	 0.732573	 0.630436	 0.000000 
Ti86	 0.804001	 0.676443	 0.500000 
Ti87	 0.589716	 0.630436	 0.000000 
Ti88	 0.661144	 0.676443	 0.500000 
Ti89	 0.446859	 0.630436	 0.000000 
Ti90	 0.518287	 0.676443	 0.500000 
Ti91	 0.304001	 0.630436	 0.000000 
Ti92	 0.375430	 0.676443	 0.500000 
Ti93	 0.161144	 0.630436	 0.000000 
Ti94	 0.232573	 0.676443	 0.500000 
Ti95	 0.018287	 0.630436	 0.000000 
Ti96	 0.089716	 0.676443	 0.500000 
Ti97	 0.875430	 0.630436	 0.000000 
Ti98	 0.946859	 0.676443	 0.500000 
Ti99	 0.732573	 0.722451	 0.000000 
Ti100	 0.804001	 0.768458	 0.500000 
Ti101	 0.589716	 0.722451	 0.000000 
Ti102	 0.661144	 0.768458	 0.500000 
Ti103	 0.446859	 0.722451	 0.000000 
Ti104	 0.518287	 0.768458	 0.500000 
Ti105	 0.304001	 0.722451	 0.000000 
Ti106	 0.375430	 0.768458	 0.500000 
Ti107	 0.161144	 0.722451	 0.000000 
Ti108	 0.232573	 0.768458	 0.500000 
Ti109	 0.018287	 0.722451	 0.000000 
Ti110	 0.089716	 0.768458	 0.500000 
Ti111	 0.875430	 0.722451	 0.000000 
Ti112	 0.946859	 0.768458	 0.500000 
Ti113	 0.732573	 0.814465	 0.000000 
Ti114	 0.804001	 0.860472	 0.500000 
Ti115	 0.589716	 0.814465	 0.000000 
Ti116	 0.661144	 0.860472	 0.500000 
Ti117	 0.446859	 0.814465	 0.000000 
Ti118	 0.518287	 0.860472	 0.500000 
Ti119	 0.304001	 0.814465	 0.000000 
Ti120	 0.375430	 0.860472	 0.500000 
Ti121	 0.161144	 0.814465	 0.000000 
Ti122	 0.232573	 0.860472	 0.500000 
Ti123	 0.018287	 0.814465	 0.000000 
Ti124	 0.089716	 0.860472	 0.500000 
Ti125	 0.875430	 0.814465	 0.000000 
Ti126	 0.946859	 0.860472	 0.500000 
Ti127	 0.732573	 0.906479	 0.000000 
Ti128	 0.804001	 0.952487	 0.500000 
Ti129	 0.589716	 0.906479	 0.000000 
Ti130	 0.661144	 0.952487	 0.500000 
Ti131	 0.446859	 0.906479	 0.000000 
Ti132	 0.518287	 0.952487	 0.500000 
Ti133	 0.304001	 0.906479	 0.000000 
Ti134	 0.375430	 0.952487	 0.500000 
Ti135	 0.161144	 0.906479	 0.000000 
Ti136	 0.232573	 0.952487	 0.500000 
Ti137	 0.018287	 0.906479	 0.000000 
Ti138	 0.089716	 0.952487	 0.500000 
Ti139	 0.875430	 0.906479	 0.000000 
Ti140	 0.946859	 0.952487	 0.500000 
#                 ---end-of-data-block---
